<?xml version="1.0" encoding="UTF-8"?>

<!-- generated on 2021-10-23 11:43:54 by Eclipse SUMO duarouter Version 1.10.0
<configuration xmlns:xsi="http://www.w3.org/2001/XMLSchema-instance" xsi:noNamespaceSchemaLocation="http://sumo.dlr.de/xsd/duarouterConfiguration.xsd">

    <input>
        <net-file value="/home/automan/Project3/NNLS_R1/scenarios/left_turn/map.net.xml"/>
        <route-files value="/tmp/tmpybcn9j2n/trips.trips.xml"/>
    </input>

    <output>
        <output-file value="/home/automan/Project3/NNLS_R1/scenarios/left_turn/traffic/traffic_837.rou.xml"/>
        <alternatives-output value="/home/automan/Project3/NNLS_R1/scenarios/left_turn/traffic/traffic_837.rou.alt.xml"/>
    </output>

    <processing>
        <unsorted-input value="true"/>
        <repair value="true"/>
    </processing>

    <report>
        <error-log value="/home/automan/.smarts/_duarouter_routing/traffic/traffic_837.log"/>
        <no-step-log value="true"/>
    </report>

    <random_number>
        <seed value="837"/>
    </random_number>

</configuration>
-->

<routes xmlns:xsi="http://www.w3.org/2001/XMLSchema-instance" xsi:noNamespaceSchemaLocation="http://sumo.dlr.de/xsd/routes_file.xsd">
    <vType id="actor-car_type_1--6418804142364879067" minGap="2.47" maxSpeed="55.50" speedFactor="normc(0.64,0.10,0.20,2.00)" vClass="passenger" impatience="0.78" lcCooperative="0.35459639812419996" lcSpeedGain="1.0792869626629833" lcImpatience="0.10604214656023092" jmIgnoreFoeProb="0.8918264972838987" accel="2.6" decel="4.5" sigma="0.45931262718748456"/>
    <vehicle id="car_type_1-flow-route-edge-east-EW_0_random-edge-west-EW_0_max-8861631089998972976--7287493664566502874--2-0.0" type="actor-car_type_1--6418804142364879067" depart="0.00" departLane="0" departPos="random" departSpeed="max" arrivalLane="0" arrivalPos="max">
        <route edges="edge-east-EW edge-west-EW"/>
    </vehicle>
    <vehicle id="car_type_1-flow-route-edge-east-EW_1_random-edge-west-EW_1_max--6951023746137404042--7287493664566502874--3-0.0" type="actor-car_type_1--6418804142364879067" depart="0.00" departLane="1" departPos="random" departSpeed="max" arrivalLane="1" arrivalPos="max">
        <route edges="edge-east-EW edge-west-EW"/>
    </vehicle>
    <vehicle id="car_type_1-flow-route-edge-south-SN_0_random-edge-east-WE_0_random-3756341774266760014--7287493664566502874--4-0.0" type="actor-car_type_1--6418804142364879067" depart="0.00" departLane="0" departPos="random" departSpeed="max" arrivalLane="0" arrivalPos="random">
        <route edges="edge-south-SN edge-east-WE"/>
    </vehicle>
    <vehicle id="car_type_1-flow-route-edge-west-WE_0_random-edge-east-WE_0_random--7477408607216681839--7287493664566502874--0-0.0" type="actor-car_type_1--6418804142364879067" depart="0.00" departLane="0" departPos="random" departSpeed="max" arrivalLane="0" arrivalPos="random">
        <route edges="edge-west-WE edge-east-WE"/>
    </vehicle>
    <vehicle id="car_type_1-flow-route-edge-west-WE_1_random-edge-east-WE_1_random-1150677805683799947--7287493664566502874--1-0.0" type="actor-car_type_1--6418804142364879067" depart="0.00" departLane="1" departPos="random" departSpeed="max" arrivalLane="1" arrivalPos="random">
        <route edges="edge-west-WE edge-east-WE"/>
    </vehicle>
    <vType id="actor-car_type_2-8809472925702306773" minGap="2.40" maxSpeed="55.50" speedFactor="normc(0.64,0.10,0.20,2.00)" vClass="passenger" impatience="0.30" lcCooperative="0.02614992975273367" lcSpeedGain="1.4651111722808412" lcImpatience="0.36843339964228816" jmIgnoreFoeProb="0.34872037077930185" accel="2.6" decel="4.5" sigma="0.414979916078346"/>
    <vehicle id="car_type_2-flow-route-edge-east-EW_0_random-edge-west-EW_0_max-8861631089998972976--7287493664566502874--2-1.0" type="actor-car_type_2-8809472925702306773" depart="0.00" departLane="0" departPos="random" departSpeed="max" arrivalLane="0" arrivalPos="max">
        <route edges="edge-east-EW edge-west-EW"/>
    </vehicle>
    <vehicle id="car_type_2-flow-route-edge-east-EW_1_random-edge-west-EW_1_max--6951023746137404042--7287493664566502874--3-1.0" type="actor-car_type_2-8809472925702306773" depart="0.00" departLane="1" departPos="random" departSpeed="max" arrivalLane="1" arrivalPos="max">
        <route edges="edge-east-EW edge-west-EW"/>
    </vehicle>
    <vehicle id="car_type_2-flow-route-edge-south-SN_0_random-edge-east-WE_0_random-3756341774266760014--7287493664566502874--4-1.0" type="actor-car_type_2-8809472925702306773" depart="0.00" departLane="0" departPos="random" departSpeed="max" arrivalLane="0" arrivalPos="random">
        <route edges="edge-south-SN edge-east-WE"/>
    </vehicle>
    <vehicle id="car_type_2-flow-route-edge-west-WE_0_random-edge-east-WE_0_random--7477408607216681839--7287493664566502874--0-1.0" type="actor-car_type_2-8809472925702306773" depart="0.00" departLane="0" departPos="random" departSpeed="max" arrivalLane="0" arrivalPos="random">
        <route edges="edge-west-WE edge-east-WE"/>
    </vehicle>
    <vehicle id="car_type_2-flow-route-edge-west-WE_1_random-edge-east-WE_1_random-1150677805683799947--7287493664566502874--1-1.0" type="actor-car_type_2-8809472925702306773" depart="0.00" departLane="1" departPos="random" departSpeed="max" arrivalLane="1" arrivalPos="random">
        <route edges="edge-west-WE edge-east-WE"/>
    </vehicle>
    <vType id="actor-car_type_3-3846215321914319141" minGap="3.09" maxSpeed="55.50" speedFactor="normc(0.66,0.10,0.20,2.00)" vClass="passenger" impatience="0.12" lcCooperative="0.18923615100500712" lcSpeedGain="1.88866926815665" lcImpatience="0.27588631495113247" jmIgnoreFoeProb="0.8827561216556986" accel="2.6" decel="4.5" sigma="0.42334536963953073"/>
    <vehicle id="car_type_3-flow-route-edge-east-EW_0_random-edge-west-EW_0_max-8861631089998972976--7287493664566502874--2-2.0" type="actor-car_type_3-3846215321914319141" depart="0.00" departLane="0" departPos="random" departSpeed="max" arrivalLane="0" arrivalPos="max">
        <route edges="edge-east-EW edge-west-EW"/>
    </vehicle>
    <vehicle id="car_type_3-flow-route-edge-east-EW_1_random-edge-west-EW_1_max--6951023746137404042--7287493664566502874--3-2.0" type="actor-car_type_3-3846215321914319141" depart="0.00" departLane="1" departPos="random" departSpeed="max" arrivalLane="1" arrivalPos="max">
        <route edges="edge-east-EW edge-west-EW"/>
    </vehicle>
    <vehicle id="car_type_3-flow-route-edge-south-SN_0_random-edge-east-WE_0_random-3756341774266760014--7287493664566502874--4-2.0" type="actor-car_type_3-3846215321914319141" depart="0.00" departLane="0" departPos="random" departSpeed="max" arrivalLane="0" arrivalPos="random">
        <route edges="edge-south-SN edge-east-WE"/>
    </vehicle>
    <vehicle id="car_type_3-flow-route-edge-west-WE_0_random-edge-east-WE_0_random--7477408607216681839--7287493664566502874--0-2.0" type="actor-car_type_3-3846215321914319141" depart="0.00" departLane="0" departPos="random" departSpeed="max" arrivalLane="0" arrivalPos="random">
        <route edges="edge-west-WE edge-east-WE"/>
    </vehicle>
    <vehicle id="car_type_3-flow-route-edge-west-WE_1_random-edge-east-WE_1_random-1150677805683799947--7287493664566502874--1-2.0" type="actor-car_type_3-3846215321914319141" depart="0.00" departLane="1" departPos="random" departSpeed="max" arrivalLane="1" arrivalPos="random">
        <route edges="edge-west-WE edge-east-WE"/>
    </vehicle>
    <vType id="actor-car_type_4-4999322551675375014" minGap="2.64" maxSpeed="55.50" speedFactor="normc(0.88,0.10,0.20,2.00)" vClass="passenger" impatience="0.90" lcCooperative="0.4482001622961581" lcSpeedGain="1.4167344641736672" lcImpatience="0.15205232968048488" jmIgnoreFoeProb="0.7265237069966205" accel="2.6" decel="4.5" sigma="0.24870696095240313"/>
    <vehicle id="car_type_4-flow-route-edge-east-EW_0_random-edge-west-EW_0_max-8861631089998972976--7287493664566502874--2-3.0" type="actor-car_type_4-4999322551675375014" depart="0.00" departLane="0" departPos="random" departSpeed="max" arrivalLane="0" arrivalPos="max">
        <route edges="edge-east-EW edge-west-EW"/>
    </vehicle>
    <vehicle id="car_type_4-flow-route-edge-east-EW_1_random-edge-west-EW_1_max--6951023746137404042--7287493664566502874--3-3.0" type="actor-car_type_4-4999322551675375014" depart="0.00" departLane="1" departPos="random" departSpeed="max" arrivalLane="1" arrivalPos="max">
        <route edges="edge-east-EW edge-west-EW"/>
    </vehicle>
    <vehicle id="car_type_4-flow-route-edge-south-SN_0_random-edge-east-WE_0_random-3756341774266760014--7287493664566502874--4-3.0" type="actor-car_type_4-4999322551675375014" depart="0.00" departLane="0" departPos="random" departSpeed="max" arrivalLane="0" arrivalPos="random">
        <route edges="edge-south-SN edge-east-WE"/>
    </vehicle>
    <vehicle id="car_type_4-flow-route-edge-west-WE_0_random-edge-east-WE_0_random--7477408607216681839--7287493664566502874--0-3.0" type="actor-car_type_4-4999322551675375014" depart="0.00" departLane="0" departPos="random" departSpeed="max" arrivalLane="0" arrivalPos="random">
        <route edges="edge-west-WE edge-east-WE"/>
    </vehicle>
    <vehicle id="car_type_4-flow-route-edge-west-WE_1_random-edge-east-WE_1_random-1150677805683799947--7287493664566502874--1-3.0" type="actor-car_type_4-4999322551675375014" depart="0.00" departLane="1" departPos="random" departSpeed="max" arrivalLane="1" arrivalPos="random">
        <route edges="edge-west-WE edge-east-WE"/>
    </vehicle>
    <vehicle id="car_type_1-flow-route-edge-east-EW_0_random-edge-west-EW_0_max-8861631089998972976--7287493664566502874--2-0.1" type="actor-car_type_1--6418804142364879067" depart="144.00" departLane="0" departPos="random" departSpeed="max" arrivalLane="0" arrivalPos="max">
        <route edges="edge-east-EW edge-west-EW"/>
    </vehicle>
    <vehicle id="car_type_1-flow-route-edge-east-EW_1_random-edge-west-EW_1_max--6951023746137404042--7287493664566502874--3-0.1" type="actor-car_type_1--6418804142364879067" depart="144.00" departLane="1" departPos="random" departSpeed="max" arrivalLane="1" arrivalPos="max">
        <route edges="edge-east-EW edge-west-EW"/>
    </vehicle>
    <vehicle id="car_type_1-flow-route-edge-south-SN_0_random-edge-east-WE_0_random-3756341774266760014--7287493664566502874--4-0.1" type="actor-car_type_1--6418804142364879067" depart="144.00" departLane="0" departPos="random" departSpeed="max" arrivalLane="0" arrivalPos="random">
        <route edges="edge-south-SN edge-east-WE"/>
    </vehicle>
    <vehicle id="car_type_1-flow-route-edge-west-WE_0_random-edge-east-WE_0_random--7477408607216681839--7287493664566502874--0-0.1" type="actor-car_type_1--6418804142364879067" depart="144.00" departLane="0" departPos="random" departSpeed="max" arrivalLane="0" arrivalPos="random">
        <route edges="edge-west-WE edge-east-WE"/>
    </vehicle>
    <vehicle id="car_type_1-flow-route-edge-west-WE_1_random-edge-east-WE_1_random-1150677805683799947--7287493664566502874--1-0.1" type="actor-car_type_1--6418804142364879067" depart="144.00" departLane="1" departPos="random" departSpeed="max" arrivalLane="1" arrivalPos="random">
        <route edges="edge-west-WE edge-east-WE"/>
    </vehicle>
    <vehicle id="car_type_2-flow-route-edge-east-EW_0_random-edge-west-EW_0_max-8861631089998972976--7287493664566502874--2-1.1" type="actor-car_type_2-8809472925702306773" depart="144.00" departLane="0" departPos="random" departSpeed="max" arrivalLane="0" arrivalPos="max">
        <route edges="edge-east-EW edge-west-EW"/>
    </vehicle>
    <vehicle id="car_type_2-flow-route-edge-east-EW_1_random-edge-west-EW_1_max--6951023746137404042--7287493664566502874--3-1.1" type="actor-car_type_2-8809472925702306773" depart="144.00" departLane="1" departPos="random" departSpeed="max" arrivalLane="1" arrivalPos="max">
        <route edges="edge-east-EW edge-west-EW"/>
    </vehicle>
    <vehicle id="car_type_2-flow-route-edge-south-SN_0_random-edge-east-WE_0_random-3756341774266760014--7287493664566502874--4-1.1" type="actor-car_type_2-8809472925702306773" depart="144.00" departLane="0" departPos="random" departSpeed="max" arrivalLane="0" arrivalPos="random">
        <route edges="edge-south-SN edge-east-WE"/>
    </vehicle>
    <vehicle id="car_type_2-flow-route-edge-west-WE_0_random-edge-east-WE_0_random--7477408607216681839--7287493664566502874--0-1.1" type="actor-car_type_2-8809472925702306773" depart="144.00" departLane="0" departPos="random" departSpeed="max" arrivalLane="0" arrivalPos="random">
        <route edges="edge-west-WE edge-east-WE"/>
    </vehicle>
    <vehicle id="car_type_2-flow-route-edge-west-WE_1_random-edge-east-WE_1_random-1150677805683799947--7287493664566502874--1-1.1" type="actor-car_type_2-8809472925702306773" depart="144.00" departLane="1" departPos="random" departSpeed="max" arrivalLane="1" arrivalPos="random">
        <route edges="edge-west-WE edge-east-WE"/>
    </vehicle>
    <vehicle id="car_type_3-flow-route-edge-east-EW_0_random-edge-west-EW_0_max-8861631089998972976--7287493664566502874--2-2.1" type="actor-car_type_3-3846215321914319141" depart="144.00" departLane="0" departPos="random" departSpeed="max" arrivalLane="0" arrivalPos="max">
        <route edges="edge-east-EW edge-west-EW"/>
    </vehicle>
    <vehicle id="car_type_3-flow-route-edge-east-EW_1_random-edge-west-EW_1_max--6951023746137404042--7287493664566502874--3-2.1" type="actor-car_type_3-3846215321914319141" depart="144.00" departLane="1" departPos="random" departSpeed="max" arrivalLane="1" arrivalPos="max">
        <route edges="edge-east-EW edge-west-EW"/>
    </vehicle>
    <vehicle id="car_type_3-flow-route-edge-south-SN_0_random-edge-east-WE_0_random-3756341774266760014--7287493664566502874--4-2.1" type="actor-car_type_3-3846215321914319141" depart="144.00" departLane="0" departPos="random" departSpeed="max" arrivalLane="0" arrivalPos="random">
        <route edges="edge-south-SN edge-east-WE"/>
    </vehicle>
    <vehicle id="car_type_3-flow-route-edge-west-WE_0_random-edge-east-WE_0_random--7477408607216681839--7287493664566502874--0-2.1" type="actor-car_type_3-3846215321914319141" depart="144.00" departLane="0" departPos="random" departSpeed="max" arrivalLane="0" arrivalPos="random">
        <route edges="edge-west-WE edge-east-WE"/>
    </vehicle>
    <vehicle id="car_type_3-flow-route-edge-west-WE_1_random-edge-east-WE_1_random-1150677805683799947--7287493664566502874--1-2.1" type="actor-car_type_3-3846215321914319141" depart="144.00" departLane="1" departPos="random" departSpeed="max" arrivalLane="1" arrivalPos="random">
        <route edges="edge-west-WE edge-east-WE"/>
    </vehicle>
    <vehicle id="car_type_4-flow-route-edge-east-EW_0_random-edge-west-EW_0_max-8861631089998972976--7287493664566502874--2-3.1" type="actor-car_type_4-4999322551675375014" depart="144.00" departLane="0" departPos="random" departSpeed="max" arrivalLane="0" arrivalPos="max">
        <route edges="edge-east-EW edge-west-EW"/>
    </vehicle>
    <vehicle id="car_type_4-flow-route-edge-east-EW_1_random-edge-west-EW_1_max--6951023746137404042--7287493664566502874--3-3.1" type="actor-car_type_4-4999322551675375014" depart="144.00" departLane="1" departPos="random" departSpeed="max" arrivalLane="1" arrivalPos="max">
        <route edges="edge-east-EW edge-west-EW"/>
    </vehicle>
    <vehicle id="car_type_4-flow-route-edge-south-SN_0_random-edge-east-WE_0_random-3756341774266760014--7287493664566502874--4-3.1" type="actor-car_type_4-4999322551675375014" depart="144.00" departLane="0" departPos="random" departSpeed="max" arrivalLane="0" arrivalPos="random">
        <route edges="edge-south-SN edge-east-WE"/>
    </vehicle>
    <vehicle id="car_type_4-flow-route-edge-west-WE_0_random-edge-east-WE_0_random--7477408607216681839--7287493664566502874--0-3.1" type="actor-car_type_4-4999322551675375014" depart="144.00" departLane="0" departPos="random" departSpeed="max" arrivalLane="0" arrivalPos="random">
        <route edges="edge-west-WE edge-east-WE"/>
    </vehicle>
    <vehicle id="car_type_4-flow-route-edge-west-WE_1_random-edge-east-WE_1_random-1150677805683799947--7287493664566502874--1-3.1" type="actor-car_type_4-4999322551675375014" depart="144.00" departLane="1" departPos="random" departSpeed="max" arrivalLane="1" arrivalPos="random">
        <route edges="edge-west-WE edge-east-WE"/>
    </vehicle>
    <vehicle id="car_type_1-flow-route-edge-east-EW_0_random-edge-west-EW_0_max-8861631089998972976--7287493664566502874--2-0.2" type="actor-car_type_1--6418804142364879067" depart="288.00" departLane="0" departPos="random" departSpeed="max" arrivalLane="0" arrivalPos="max">
        <route edges="edge-east-EW edge-west-EW"/>
    </vehicle>
    <vehicle id="car_type_1-flow-route-edge-east-EW_1_random-edge-west-EW_1_max--6951023746137404042--7287493664566502874--3-0.2" type="actor-car_type_1--6418804142364879067" depart="288.00" departLane="1" departPos="random" departSpeed="max" arrivalLane="1" arrivalPos="max">
        <route edges="edge-east-EW edge-west-EW"/>
    </vehicle>
    <vehicle id="car_type_1-flow-route-edge-south-SN_0_random-edge-east-WE_0_random-3756341774266760014--7287493664566502874--4-0.2" type="actor-car_type_1--6418804142364879067" depart="288.00" departLane="0" departPos="random" departSpeed="max" arrivalLane="0" arrivalPos="random">
        <route edges="edge-south-SN edge-east-WE"/>
    </vehicle>
    <vehicle id="car_type_1-flow-route-edge-west-WE_0_random-edge-east-WE_0_random--7477408607216681839--7287493664566502874--0-0.2" type="actor-car_type_1--6418804142364879067" depart="288.00" departLane="0" departPos="random" departSpeed="max" arrivalLane="0" arrivalPos="random">
        <route edges="edge-west-WE edge-east-WE"/>
    </vehicle>
    <vehicle id="car_type_1-flow-route-edge-west-WE_1_random-edge-east-WE_1_random-1150677805683799947--7287493664566502874--1-0.2" type="actor-car_type_1--6418804142364879067" depart="288.00" departLane="1" departPos="random" departSpeed="max" arrivalLane="1" arrivalPos="random">
        <route edges="edge-west-WE edge-east-WE"/>
    </vehicle>
    <vehicle id="car_type_2-flow-route-edge-east-EW_0_random-edge-west-EW_0_max-8861631089998972976--7287493664566502874--2-1.2" type="actor-car_type_2-8809472925702306773" depart="288.00" departLane="0" departPos="random" departSpeed="max" arrivalLane="0" arrivalPos="max">
        <route edges="edge-east-EW edge-west-EW"/>
    </vehicle>
    <vehicle id="car_type_2-flow-route-edge-east-EW_1_random-edge-west-EW_1_max--6951023746137404042--7287493664566502874--3-1.2" type="actor-car_type_2-8809472925702306773" depart="288.00" departLane="1" departPos="random" departSpeed="max" arrivalLane="1" arrivalPos="max">
        <route edges="edge-east-EW edge-west-EW"/>
    </vehicle>
    <vehicle id="car_type_2-flow-route-edge-south-SN_0_random-edge-east-WE_0_random-3756341774266760014--7287493664566502874--4-1.2" type="actor-car_type_2-8809472925702306773" depart="288.00" departLane="0" departPos="random" departSpeed="max" arrivalLane="0" arrivalPos="random">
        <route edges="edge-south-SN edge-east-WE"/>
    </vehicle>
    <vehicle id="car_type_2-flow-route-edge-west-WE_0_random-edge-east-WE_0_random--7477408607216681839--7287493664566502874--0-1.2" type="actor-car_type_2-8809472925702306773" depart="288.00" departLane="0" departPos="random" departSpeed="max" arrivalLane="0" arrivalPos="random">
        <route edges="edge-west-WE edge-east-WE"/>
    </vehicle>
    <vehicle id="car_type_2-flow-route-edge-west-WE_1_random-edge-east-WE_1_random-1150677805683799947--7287493664566502874--1-1.2" type="actor-car_type_2-8809472925702306773" depart="288.00" departLane="1" departPos="random" departSpeed="max" arrivalLane="1" arrivalPos="random">
        <route edges="edge-west-WE edge-east-WE"/>
    </vehicle>
    <vehicle id="car_type_3-flow-route-edge-east-EW_0_random-edge-west-EW_0_max-8861631089998972976--7287493664566502874--2-2.2" type="actor-car_type_3-3846215321914319141" depart="288.00" departLane="0" departPos="random" departSpeed="max" arrivalLane="0" arrivalPos="max">
        <route edges="edge-east-EW edge-west-EW"/>
    </vehicle>
    <vehicle id="car_type_3-flow-route-edge-east-EW_1_random-edge-west-EW_1_max--6951023746137404042--7287493664566502874--3-2.2" type="actor-car_type_3-3846215321914319141" depart="288.00" departLane="1" departPos="random" departSpeed="max" arrivalLane="1" arrivalPos="max">
        <route edges="edge-east-EW edge-west-EW"/>
    </vehicle>
    <vehicle id="car_type_3-flow-route-edge-south-SN_0_random-edge-east-WE_0_random-3756341774266760014--7287493664566502874--4-2.2" type="actor-car_type_3-3846215321914319141" depart="288.00" departLane="0" departPos="random" departSpeed="max" arrivalLane="0" arrivalPos="random">
        <route edges="edge-south-SN edge-east-WE"/>
    </vehicle>
    <vehicle id="car_type_3-flow-route-edge-west-WE_0_random-edge-east-WE_0_random--7477408607216681839--7287493664566502874--0-2.2" type="actor-car_type_3-3846215321914319141" depart="288.00" departLane="0" departPos="random" departSpeed="max" arrivalLane="0" arrivalPos="random">
        <route edges="edge-west-WE edge-east-WE"/>
    </vehicle>
    <vehicle id="car_type_3-flow-route-edge-west-WE_1_random-edge-east-WE_1_random-1150677805683799947--7287493664566502874--1-2.2" type="actor-car_type_3-3846215321914319141" depart="288.00" departLane="1" departPos="random" departSpeed="max" arrivalLane="1" arrivalPos="random">
        <route edges="edge-west-WE edge-east-WE"/>
    </vehicle>
    <vehicle id="car_type_4-flow-route-edge-east-EW_0_random-edge-west-EW_0_max-8861631089998972976--7287493664566502874--2-3.2" type="actor-car_type_4-4999322551675375014" depart="288.00" departLane="0" departPos="random" departSpeed="max" arrivalLane="0" arrivalPos="max">
        <route edges="edge-east-EW edge-west-EW"/>
    </vehicle>
    <vehicle id="car_type_4-flow-route-edge-east-EW_1_random-edge-west-EW_1_max--6951023746137404042--7287493664566502874--3-3.2" type="actor-car_type_4-4999322551675375014" depart="288.00" departLane="1" departPos="random" departSpeed="max" arrivalLane="1" arrivalPos="max">
        <route edges="edge-east-EW edge-west-EW"/>
    </vehicle>
    <vehicle id="car_type_4-flow-route-edge-south-SN_0_random-edge-east-WE_0_random-3756341774266760014--7287493664566502874--4-3.2" type="actor-car_type_4-4999322551675375014" depart="288.00" departLane="0" departPos="random" departSpeed="max" arrivalLane="0" arrivalPos="random">
        <route edges="edge-south-SN edge-east-WE"/>
    </vehicle>
    <vehicle id="car_type_4-flow-route-edge-west-WE_0_random-edge-east-WE_0_random--7477408607216681839--7287493664566502874--0-3.2" type="actor-car_type_4-4999322551675375014" depart="288.00" departLane="0" departPos="random" departSpeed="max" arrivalLane="0" arrivalPos="random">
        <route edges="edge-west-WE edge-east-WE"/>
    </vehicle>
    <vehicle id="car_type_4-flow-route-edge-west-WE_1_random-edge-east-WE_1_random-1150677805683799947--7287493664566502874--1-3.2" type="actor-car_type_4-4999322551675375014" depart="288.00" departLane="1" departPos="random" departSpeed="max" arrivalLane="1" arrivalPos="random">
        <route edges="edge-west-WE edge-east-WE"/>
    </vehicle>
    <vehicle id="car_type_1-flow-route-edge-east-EW_0_random-edge-west-EW_0_max-8861631089998972976--7287493664566502874--2-0.3" type="actor-car_type_1--6418804142364879067" depart="432.00" departLane="0" departPos="random" departSpeed="max" arrivalLane="0" arrivalPos="max">
        <route edges="edge-east-EW edge-west-EW"/>
    </vehicle>
    <vehicle id="car_type_1-flow-route-edge-east-EW_1_random-edge-west-EW_1_max--6951023746137404042--7287493664566502874--3-0.3" type="actor-car_type_1--6418804142364879067" depart="432.00" departLane="1" departPos="random" departSpeed="max" arrivalLane="1" arrivalPos="max">
        <route edges="edge-east-EW edge-west-EW"/>
    </vehicle>
    <vehicle id="car_type_1-flow-route-edge-south-SN_0_random-edge-east-WE_0_random-3756341774266760014--7287493664566502874--4-0.3" type="actor-car_type_1--6418804142364879067" depart="432.00" departLane="0" departPos="random" departSpeed="max" arrivalLane="0" arrivalPos="random">
        <route edges="edge-south-SN edge-east-WE"/>
    </vehicle>
    <vehicle id="car_type_1-flow-route-edge-west-WE_0_random-edge-east-WE_0_random--7477408607216681839--7287493664566502874--0-0.3" type="actor-car_type_1--6418804142364879067" depart="432.00" departLane="0" departPos="random" departSpeed="max" arrivalLane="0" arrivalPos="random">
        <route edges="edge-west-WE edge-east-WE"/>
    </vehicle>
    <vehicle id="car_type_1-flow-route-edge-west-WE_1_random-edge-east-WE_1_random-1150677805683799947--7287493664566502874--1-0.3" type="actor-car_type_1--6418804142364879067" depart="432.00" departLane="1" departPos="random" departSpeed="max" arrivalLane="1" arrivalPos="random">
        <route edges="edge-west-WE edge-east-WE"/>
    </vehicle>
    <vehicle id="car_type_2-flow-route-edge-east-EW_0_random-edge-west-EW_0_max-8861631089998972976--7287493664566502874--2-1.3" type="actor-car_type_2-8809472925702306773" depart="432.00" departLane="0" departPos="random" departSpeed="max" arrivalLane="0" arrivalPos="max">
        <route edges="edge-east-EW edge-west-EW"/>
    </vehicle>
    <vehicle id="car_type_2-flow-route-edge-east-EW_1_random-edge-west-EW_1_max--6951023746137404042--7287493664566502874--3-1.3" type="actor-car_type_2-8809472925702306773" depart="432.00" departLane="1" departPos="random" departSpeed="max" arrivalLane="1" arrivalPos="max">
        <route edges="edge-east-EW edge-west-EW"/>
    </vehicle>
    <vehicle id="car_type_2-flow-route-edge-south-SN_0_random-edge-east-WE_0_random-3756341774266760014--7287493664566502874--4-1.3" type="actor-car_type_2-8809472925702306773" depart="432.00" departLane="0" departPos="random" departSpeed="max" arrivalLane="0" arrivalPos="random">
        <route edges="edge-south-SN edge-east-WE"/>
    </vehicle>
    <vehicle id="car_type_2-flow-route-edge-west-WE_0_random-edge-east-WE_0_random--7477408607216681839--7287493664566502874--0-1.3" type="actor-car_type_2-8809472925702306773" depart="432.00" departLane="0" departPos="random" departSpeed="max" arrivalLane="0" arrivalPos="random">
        <route edges="edge-west-WE edge-east-WE"/>
    </vehicle>
    <vehicle id="car_type_2-flow-route-edge-west-WE_1_random-edge-east-WE_1_random-1150677805683799947--7287493664566502874--1-1.3" type="actor-car_type_2-8809472925702306773" depart="432.00" departLane="1" departPos="random" departSpeed="max" arrivalLane="1" arrivalPos="random">
        <route edges="edge-west-WE edge-east-WE"/>
    </vehicle>
    <vehicle id="car_type_3-flow-route-edge-east-EW_0_random-edge-west-EW_0_max-8861631089998972976--7287493664566502874--2-2.3" type="actor-car_type_3-3846215321914319141" depart="432.00" departLane="0" departPos="random" departSpeed="max" arrivalLane="0" arrivalPos="max">
        <route edges="edge-east-EW edge-west-EW"/>
    </vehicle>
    <vehicle id="car_type_3-flow-route-edge-east-EW_1_random-edge-west-EW_1_max--6951023746137404042--7287493664566502874--3-2.3" type="actor-car_type_3-3846215321914319141" depart="432.00" departLane="1" departPos="random" departSpeed="max" arrivalLane="1" arrivalPos="max">
        <route edges="edge-east-EW edge-west-EW"/>
    </vehicle>
    <vehicle id="car_type_3-flow-route-edge-south-SN_0_random-edge-east-WE_0_random-3756341774266760014--7287493664566502874--4-2.3" type="actor-car_type_3-3846215321914319141" depart="432.00" departLane="0" departPos="random" departSpeed="max" arrivalLane="0" arrivalPos="random">
        <route edges="edge-south-SN edge-east-WE"/>
    </vehicle>
    <vehicle id="car_type_3-flow-route-edge-west-WE_0_random-edge-east-WE_0_random--7477408607216681839--7287493664566502874--0-2.3" type="actor-car_type_3-3846215321914319141" depart="432.00" departLane="0" departPos="random" departSpeed="max" arrivalLane="0" arrivalPos="random">
        <route edges="edge-west-WE edge-east-WE"/>
    </vehicle>
    <vehicle id="car_type_3-flow-route-edge-west-WE_1_random-edge-east-WE_1_random-1150677805683799947--7287493664566502874--1-2.3" type="actor-car_type_3-3846215321914319141" depart="432.00" departLane="1" departPos="random" departSpeed="max" arrivalLane="1" arrivalPos="random">
        <route edges="edge-west-WE edge-east-WE"/>
    </vehicle>
    <vehicle id="car_type_4-flow-route-edge-east-EW_0_random-edge-west-EW_0_max-8861631089998972976--7287493664566502874--2-3.3" type="actor-car_type_4-4999322551675375014" depart="432.00" departLane="0" departPos="random" departSpeed="max" arrivalLane="0" arrivalPos="max">
        <route edges="edge-east-EW edge-west-EW"/>
    </vehicle>
    <vehicle id="car_type_4-flow-route-edge-east-EW_1_random-edge-west-EW_1_max--6951023746137404042--7287493664566502874--3-3.3" type="actor-car_type_4-4999322551675375014" depart="432.00" departLane="1" departPos="random" departSpeed="max" arrivalLane="1" arrivalPos="max">
        <route edges="edge-east-EW edge-west-EW"/>
    </vehicle>
    <vehicle id="car_type_4-flow-route-edge-south-SN_0_random-edge-east-WE_0_random-3756341774266760014--7287493664566502874--4-3.3" type="actor-car_type_4-4999322551675375014" depart="432.00" departLane="0" departPos="random" departSpeed="max" arrivalLane="0" arrivalPos="random">
        <route edges="edge-south-SN edge-east-WE"/>
    </vehicle>
    <vehicle id="car_type_4-flow-route-edge-west-WE_0_random-edge-east-WE_0_random--7477408607216681839--7287493664566502874--0-3.3" type="actor-car_type_4-4999322551675375014" depart="432.00" departLane="0" departPos="random" departSpeed="max" arrivalLane="0" arrivalPos="random">
        <route edges="edge-west-WE edge-east-WE"/>
    </vehicle>