<?xml version="1.0" encoding="UTF-8"?>

<!-- generated on 2021-10-23 11:43:55 by Eclipse SUMO duarouter Version 1.10.0
<configuration xmlns:xsi="http://www.w3.org/2001/XMLSchema-instance" xsi:noNamespaceSchemaLocation="http://sumo.dlr.de/xsd/duarouterConfiguration.xsd">

    <input>
        <net-file value="/home/automan/Project3/NNLS_R1/scenarios/left_turn/map.net.xml"/>
        <route-files value="/tmp/tmpszyo07_y/trips.trips.xml"/>
    </input>

    <output>
        <output-file value="/home/automan/Project3/NNLS_R1/scenarios/left_turn/traffic/traffic_622.rou.xml"/>
        <alternatives-output value="/home/automan/Project3/NNLS_R1/scenarios/left_turn/traffic/traffic_622.rou.alt.xml"/>
    </output>

    <processing>
        <unsorted-input value="true"/>
        <repair value="true"/>
    </processing>

    <report>
        <error-log value="/home/automan/.smarts/_duarouter_routing/traffic/traffic_622.log"/>
        <no-step-log value="true"/>
    </report>

    <random_number>
        <seed value="622"/>
    </random_number>

</configuration>
-->

<routes xmlns:xsi="http://www.w3.org/2001/XMLSchema-instance" xsi:noNamespaceSchemaLocation="http://sumo.dlr.de/xsd/routes_file.xsd">
    <vType id="actor-car_type_1-1375347530988257184" minGap="3.62" maxSpeed="55.50" speedFactor="normc(0.84,0.10,0.20,2.00)" vClass="passenger" impatience="0.68" lcCooperative="0.5362536415782025" lcSpeedGain="1.567741754022494" lcImpatience="0.7396196174854205" jmIgnoreFoeProb="0.44508875798568015" accel="2.6" decel="4.5" sigma="0.3446949856081848"/>
    <vehicle id="car_type_1-flow-route-edge-east-EW_0_random-edge-west-EW_0_max-8861631089998972976---3941291921516263369--2-0.0" type="actor-car_type_1-1375347530988257184" depart="0.00" departLane="0" departPos="random" departSpeed="max" arrivalLane="0" arrivalPos="max">
        <route edges="edge-east-EW edge-west-EW"/>
    </vehicle>
    <vehicle id="car_type_1-flow-route-edge-east-EW_1_random-edge-west-EW_1_max--6951023746137404042---3941291921516263369--3-0.0" type="actor-car_type_1-1375347530988257184" depart="0.00" departLane="1" departPos="random" departSpeed="max" arrivalLane="1" arrivalPos="max">
        <route edges="edge-east-EW edge-west-EW"/>
    </vehicle>
    <vehicle id="car_type_1-flow-route-edge-south-SN_0_random-edge-east-WE_0_random-3756341774266760014---3941291921516263369--4-0.0" type="actor-car_type_1-1375347530988257184" depart="0.00" departLane="0" departPos="random" departSpeed="max" arrivalLane="0" arrivalPos="random">
        <route edges="edge-south-SN edge-east-WE"/>
    </vehicle>
    <vehicle id="car_type_1-flow-route-edge-west-WE_0_random-edge-east-WE_0_random--7477408607216681839---3941291921516263369--0-0.0" type="actor-car_type_1-1375347530988257184" depart="0.00" departLane="0" departPos="random" departSpeed="max" arrivalLane="0" arrivalPos="random">
        <route edges="edge-west-WE edge-east-WE"/>
    </vehicle>
    <vehicle id="car_type_1-flow-route-edge-west-WE_1_random-edge-east-WE_1_random-1150677805683799947---3941291921516263369--1-0.0" type="actor-car_type_1-1375347530988257184" depart="0.00" departLane="1" departPos="random" departSpeed="max" arrivalLane="1" arrivalPos="random">
        <route edges="edge-west-WE edge-east-WE"/>
    </vehicle>
    <vType id="actor-car_type_2-758996955329437936" minGap="3.69" maxSpeed="55.50" speedFactor="normc(0.62,0.10,0.20,2.00)" vClass="passenger" impatience="0.11" lcCooperative="0.38631511288613307" lcSpeedGain="1.731223578090437" lcImpatience="0.08092745824306913" jmIgnoreFoeProb="0.40486360147361067" accel="2.6" decel="4.5" sigma="0.33887478380594255"/>
    <vehicle id="car_type_2-flow-route-edge-east-EW_0_random-edge-west-EW_0_max-8861631089998972976---3941291921516263369--2-1.0" type="actor-car_type_2-758996955329437936" depart="0.00" departLane="0" departPos="random" departSpeed="max" arrivalLane="0" arrivalPos="max">
        <route edges="edge-east-EW edge-west-EW"/>
    </vehicle>
    <vehicle id="car_type_2-flow-route-edge-east-EW_1_random-edge-west-EW_1_max--6951023746137404042---3941291921516263369--3-1.0" type="actor-car_type_2-758996955329437936" depart="0.00" departLane="1" departPos="random" departSpeed="max" arrivalLane="1" arrivalPos="max">
        <route edges="edge-east-EW edge-west-EW"/>
    </vehicle>
    <vehicle id="car_type_2-flow-route-edge-south-SN_0_random-edge-east-WE_0_random-3756341774266760014---3941291921516263369--4-1.0" type="actor-car_type_2-758996955329437936" depart="0.00" departLane="0" departPos="random" departSpeed="max" arrivalLane="0" arrivalPos="random">
        <route edges="edge-south-SN edge-east-WE"/>
    </vehicle>
    <vehicle id="car_type_2-flow-route-edge-west-WE_0_random-edge-east-WE_0_random--7477408607216681839---3941291921516263369--0-1.0" type="actor-car_type_2-758996955329437936" depart="0.00" departLane="0" departPos="random" departSpeed="max" arrivalLane="0" arrivalPos="random">
        <route edges="edge-west-WE edge-east-WE"/>
    </vehicle>
    <vehicle id="car_type_2-flow-route-edge-west-WE_1_random-edge-east-WE_1_random-1150677805683799947---3941291921516263369--1-1.0" type="actor-car_type_2-758996955329437936" depart="0.00" departLane="1" departPos="random" departSpeed="max" arrivalLane="1" arrivalPos="random">
        <route edges="edge-west-WE edge-east-WE"/>
    </vehicle>
    <vType id="actor-car_type_3--5397758328833434971" minGap="3.92" maxSpeed="55.50" speedFactor="normc(0.72,0.10,0.20,2.00)" vClass="passenger" impatience="0.93" lcCooperative="0.9092962343969367" lcSpeedGain="1.0304723164884995" lcImpatience="0.3037260872639649" jmIgnoreFoeProb="0.43931729217113014" accel="2.6" decel="4.5" sigma="0.503990131927233"/>
    <vehicle id="car_type_3-flow-route-edge-east-EW_0_random-edge-west-EW_0_max-8861631089998972976---3941291921516263369--2-2.0" type="actor-car_type_3--5397758328833434971" depart="0.00" departLane="0" departPos="random" departSpeed="max" arrivalLane="0" arrivalPos="max">
        <route edges="edge-east-EW edge-west-EW"/>
    </vehicle>
    <vehicle id="car_type_3-flow-route-edge-east-EW_1_random-edge-west-EW_1_max--6951023746137404042---3941291921516263369--3-2.0" type="actor-car_type_3--5397758328833434971" depart="0.00" departLane="1" departPos="random" departSpeed="max" arrivalLane="1" arrivalPos="max">
        <route edges="edge-east-EW edge-west-EW"/>
    </vehicle>
    <vehicle id="car_type_3-flow-route-edge-south-SN_0_random-edge-east-WE_0_random-3756341774266760014---3941291921516263369--4-2.0" type="actor-car_type_3--5397758328833434971" depart="0.00" departLane="0" departPos="random" departSpeed="max" arrivalLane="0" arrivalPos="random">
        <route edges="edge-south-SN edge-east-WE"/>
    </vehicle>
    <vehicle id="car_type_3-flow-route-edge-west-WE_0_random-edge-east-WE_0_random--7477408607216681839---3941291921516263369--0-2.0" type="actor-car_type_3--5397758328833434971" depart="0.00" departLane="0" departPos="random" departSpeed="max" arrivalLane="0" arrivalPos="random">
        <route edges="edge-west-WE edge-east-WE"/>
    </vehicle>
    <vehicle id="car_type_3-flow-route-edge-west-WE_1_random-edge-east-WE_1_random-1150677805683799947---3941291921516263369--1-2.0" type="actor-car_type_3--5397758328833434971" depart="0.00" departLane="1" departPos="random" departSpeed="max" arrivalLane="1" arrivalPos="random">
        <route edges="edge-west-WE edge-east-WE"/>
    </vehicle>
    <vType id="actor-car_type_4-5818789177392833574" minGap="2.56" maxSpeed="55.50" speedFactor="normc(0.79,0.10,0.20,2.00)" vClass="passenger" impatience="0.49" lcCooperative="0.9979557803629064" lcSpeedGain="1.4700207234916332" lcImpatience="0.34695946248405396" jmIgnoreFoeProb="0.2843955541087745" accel="2.6" decel="4.5" sigma="0.7047709929245006"/>
    <vehicle id="car_type_4-flow-route-edge-east-EW_0_random-edge-west-EW_0_max-8861631089998972976---3941291921516263369--2-3.0" type="actor-car_type_4-5818789177392833574" depart="0.00" departLane="0" departPos="random" departSpeed="max" arrivalLane="0" arrivalPos="max">
        <route edges="edge-east-EW edge-west-EW"/>
    </vehicle>
    <vehicle id="car_type_4-flow-route-edge-east-EW_1_random-edge-west-EW_1_max--6951023746137404042---3941291921516263369--3-3.0" type="actor-car_type_4-5818789177392833574" depart="0.00" departLane="1" departPos="random" departSpeed="max" arrivalLane="1" arrivalPos="max">
        <route edges="edge-east-EW edge-west-EW"/>
    </vehicle>
    <vehicle id="car_type_4-flow-route-edge-south-SN_0_random-edge-east-WE_0_random-3756341774266760014---3941291921516263369--4-3.0" type="actor-car_type_4-5818789177392833574" depart="0.00" departLane="0" departPos="random" departSpeed="max" arrivalLane="0" arrivalPos="random">
        <route edges="edge-south-SN edge-east-WE"/>
    </vehicle>
    <vehicle id="car_type_4-flow-route-edge-west-WE_0_random-edge-east-WE_0_random--7477408607216681839---3941291921516263369--0-3.0" type="actor-car_type_4-5818789177392833574" depart="0.00" departLane="0" departPos="random" departSpeed="max" arrivalLane="0" arrivalPos="random">
        <route edges="edge-west-WE edge-east-WE"/>
    </vehicle>
    <vehicle id="car_type_4-flow-route-edge-west-WE_1_random-edge-east-WE_1_random-1150677805683799947---3941291921516263369--1-3.0" type="actor-car_type_4-5818789177392833574" depart="0.00" departLane="1" departPos="random" departSpeed="max" arrivalLane="1" arrivalPos="random">
        <route edges="edge-west-WE edge-east-WE"/>
    </vehicle>
    <vehicle id="car_type_1-flow-route-edge-east-EW_0_random-edge-west-EW_0_max-8861631089998972976---3941291921516263369--2-0.1" type="actor-car_type_1-1375347530988257184" depart="144.00" departLane="0" departPos="random" departSpeed="max" arrivalLane="0" arrivalPos="max">
        <route edges="edge-east-EW edge-west-EW"/>
    </vehicle>
    <vehicle id="car_type_1-flow-route-edge-east-EW_1_random-edge-west-EW_1_max--6951023746137404042---3941291921516263369--3-0.1" type="actor-car_type_1-1375347530988257184" depart="144.00" departLane="1" departPos="random" departSpeed="max" arrivalLane="1" arrivalPos="max">
        <route edges="edge-east-EW edge-west-EW"/>
    </vehicle>
    <vehicle id="car_type_1-flow-route-edge-south-SN_0_random-edge-east-WE_0_random-3756341774266760014---3941291921516263369--4-0.1" type="actor-car_type_1-1375347530988257184" depart="144.00" departLane="0" departPos="random" departSpeed="max" arrivalLane="0" arrivalPos="random">
        <route edges="edge-south-SN edge-east-WE"/>
    </vehicle>
    <vehicle id="car_type_1-flow-route-edge-west-WE_0_random-edge-east-WE_0_random--7477408607216681839---3941291921516263369--0-0.1" type="actor-car_type_1-1375347530988257184" depart="144.00" departLane="0" departPos="random" departSpeed="max" arrivalLane="0" arrivalPos="random">
        <route edges="edge-west-WE edge-east-WE"/>
    </vehicle>
    <vehicle id="car_type_1-flow-route-edge-west-WE_1_random-edge-east-WE_1_random-1150677805683799947---3941291921516263369--1-0.1" type="actor-car_type_1-1375347530988257184" depart="144.00" departLane="1" departPos="random" departSpeed="max" arrivalLane="1" arrivalPos="random">
        <route edges="edge-west-WE edge-east-WE"/>
    </vehicle>
    <vehicle id="car_type_2-flow-route-edge-east-EW_0_random-edge-west-EW_0_max-8861631089998972976---3941291921516263369--2-1.1" type="actor-car_type_2-758996955329437936" depart="144.00" departLane="0" departPos="random" departSpeed="max" arrivalLane="0" arrivalPos="max">
        <route edges="edge-east-EW edge-west-EW"/>
    </vehicle>
    <vehicle id="car_type_2-flow-route-edge-east-EW_1_random-edge-west-EW_1_max--6951023746137404042---3941291921516263369--3-1.1" type="actor-car_type_2-758996955329437936" depart="144.00" departLane="1" departPos="random" departSpeed="max" arrivalLane="1" arrivalPos="max">
        <route edges="edge-east-EW edge-west-EW"/>
    </vehicle>
    <vehicle id="car_type_2-flow-route-edge-south-SN_0_random-edge-east-WE_0_random-3756341774266760014---3941291921516263369--4-1.1" type="actor-car_type_2-758996955329437936" depart="144.00" departLane="0" departPos="random" departSpeed="max" arrivalLane="0" arrivalPos="random">
        <route edges="edge-south-SN edge-east-WE"/>
    </vehicle>
    <vehicle id="car_type_2-flow-route-edge-west-WE_0_random-edge-east-WE_0_random--7477408607216681839---3941291921516263369--0-1.1" type="actor-car_type_2-758996955329437936" depart="144.00" departLane="0" departPos="random" departSpeed="max" arrivalLane="0" arrivalPos="random">
        <route edges="edge-west-WE edge-east-WE"/>
    </vehicle>
    <vehicle id="car_type_2-flow-route-edge-west-WE_1_random-edge-east-WE_1_random-1150677805683799947---3941291921516263369--1-1.1" type="actor-car_type_2-758996955329437936" depart="144.00" departLane="1" departPos="random" departSpeed="max" arrivalLane="1" arrivalPos="random">
        <route edges="edge-west-WE edge-east-WE"/>
    </vehicle>
    <vehicle id="car_type_3-flow-route-edge-east-EW_0_random-edge-west-EW_0_max-8861631089998972976---3941291921516263369--2-2.1" type="actor-car_type_3--5397758328833434971" depart="144.00" departLane="0" departPos="random" departSpeed="max" arrivalLane="0" arrivalPos="max">
        <route edges="edge-east-EW edge-west-EW"/>
    </vehicle>
    <vehicle id="car_type_3-flow-route-edge-east-EW_1_random-edge-west-EW_1_max--6951023746137404042---3941291921516263369--3-2.1" type="actor-car_type_3--5397758328833434971" depart="144.00" departLane="1" departPos="random" departSpeed="max" arrivalLane="1" arrivalPos="max">
        <route edges="edge-east-EW edge-west-EW"/>
    </vehicle>
    <vehicle id="car_type_3-flow-route-edge-south-SN_0_random-edge-east-WE_0_random-3756341774266760014---3941291921516263369--4-2.1" type="actor-car_type_3--5397758328833434971" depart="144.00" departLane="0" departPos="random" departSpeed="max" arrivalLane="0" arrivalPos="random">
        <route edges="edge-south-SN edge-east-WE"/>
    </vehicle>
    <vehicle id="car_type_3-flow-route-edge-west-WE_0_random-edge-east-WE_0_random--7477408607216681839---3941291921516263369--0-2.1" type="actor-car_type_3--5397758328833434971" depart="144.00" departLane="0" departPos="random" departSpeed="max" arrivalLane="0" arrivalPos="random">
        <route edges="edge-west-WE edge-east-WE"/>
    </vehicle>
    <vehicle id="car_type_3-flow-route-edge-west-WE_1_random-edge-east-WE_1_random-1150677805683799947---3941291921516263369--1-2.1" type="actor-car_type_3--5397758328833434971" depart="144.00" departLane="1" departPos="random" departSpeed="max" arrivalLane="1" arrivalPos="random">
        <route edges="edge-west-WE edge-east-WE"/>
    </vehicle>
    <vehicle id="car_type_4-flow-route-edge-east-EW_0_random-edge-west-EW_0_max-8861631089998972976---3941291921516263369--2-3.1" type="actor-car_type_4-5818789177392833574" depart="144.00" departLane="0" departPos="random" departSpeed="max" arrivalLane="0" arrivalPos="max">
        <route edges="edge-east-EW edge-west-EW"/>
    </vehicle>
    <vehicle id="car_type_4-flow-route-edge-east-EW_1_random-edge-west-EW_1_max--6951023746137404042---3941291921516263369--3-3.1" type="actor-car_type_4-5818789177392833574" depart="144.00" departLane="1" departPos="random" departSpeed="max" arrivalLane="1" arrivalPos="max">
        <route edges="edge-east-EW edge-west-EW"/>
    </vehicle>
    <vehicle id="car_type_4-flow-route-edge-south-SN_0_random-edge-east-WE_0_random-3756341774266760014---3941291921516263369--4-3.1" type="actor-car_type_4-5818789177392833574" depart="144.00" departLane="0" departPos="random" departSpeed="max" arrivalLane="0" arrivalPos="random">
        <route edges="edge-south-SN edge-east-WE"/>
    </vehicle>
    <vehicle id="car_type_4-flow-route-edge-west-WE_0_random-edge-east-WE_0_random--7477408607216681839---3941291921516263369--0-3.1" type="actor-car_type_4-5818789177392833574" depart="144.00" departLane="0" departPos="random" departSpeed="max" arrivalLane="0" arrivalPos="random">
        <route edges="edge-west-WE edge-east-WE"/>
    </vehicle>
    <vehicle id="car_type_4-flow-route-edge-west-WE_1_random-edge-east-WE_1_random-1150677805683799947---3941291921516263369--1-3.1" type="actor-car_type_4-5818789177392833574" depart="144.00" departLane="1" departPos="random" departSpeed="max" arrivalLane="1" arrivalPos="random">
        <route edges="edge-west-WE edge-east-WE"/>
    </vehicle>
    <vehicle id="car_type_1-flow-route-edge-east-EW_0_random-edge-west-EW_0_max-8861631089998972976---3941291921516263369--2-0.2" type="actor-car_type_1-1375347530988257184" depart="288.00" departLane="0" departPos="random" departSpeed="max" arrivalLane="0" arrivalPos="max">
        <route edges="edge-east-EW edge-west-EW"/>
    </vehicle>
    <vehicle id="car_type_1-flow-route-edge-east-EW_1_random-edge-west-EW_1_max--6951023746137404042---3941291921516263369--3-0.2" type="actor-car_type_1-1375347530988257184" depart="288.00" departLane="1" departPos="random" departSpeed="max" arrivalLane="1" arrivalPos="max">
        <route edges="edge-east-EW edge-west-EW"/>
    </vehicle>
    <vehicle id="car_type_1-flow-route-edge-south-SN_0_random-edge-east-WE_0_random-3756341774266760014---3941291921516263369--4-0.2" type="actor-car_type_1-1375347530988257184" depart="288.00" departLane="0" departPos="random" departSpeed="max" arrivalLane="0" arrivalPos="random">
        <route edges="edge-south-SN edge-east-WE"/>
    </vehicle>
    <vehicle id="car_type_1-flow-route-edge-west-WE_0_random-edge-east-WE_0_random--7477408607216681839---3941291921516263369--0-0.2" type="actor-car_type_1-1375347530988257184" depart="288.00" departLane="0" departPos="random" departSpeed="max" arrivalLane="0" arrivalPos="random">
        <route edges="edge-west-WE edge-east-WE"/>
    </vehicle>
    <vehicle id="car_type_1-flow-route-edge-west-WE_1_random-edge-east-WE_1_random-1150677805683799947---3941291921516263369--1-0.2" type="actor-car_type_1-1375347530988257184" depart="288.00" departLane="1" departPos="random" departSpeed="max" arrivalLane="1" arrivalPos="random">
        <route edges="edge-west-WE edge-east-WE"/>
    </vehicle>
    <vehicle id="car_type_2-flow-route-edge-east-EW_0_random-edge-west-EW_0_max-8861631089998972976---3941291921516263369--2-1.2" type="actor-car_type_2-758996955329437936" depart="288.00" departLane="0" departPos="random" departSpeed="max" arrivalLane="0" arrivalPos="max">
        <route edges="edge-east-EW edge-west-EW"/>
    </vehicle>
    <vehicle id="car_type_2-flow-route-edge-east-EW_1_random-edge-west-EW_1_max--6951023746137404042---3941291921516263369--3-1.2" type="actor-car_type_2-758996955329437936" depart="288.00" departLane="1" departPos="random" departSpeed="max" arrivalLane="1" arrivalPos="max">
        <route edges="edge-east-EW edge-west-EW"/>
    </vehicle>
    <vehicle id="car_type_2-flow-route-edge-south-SN_0_random-edge-east-WE_0_random-3756341774266760014---3941291921516263369--4-1.2" type="actor-car_type_2-758996955329437936" depart="288.00" departLane="0" departPos="random" departSpeed="max" arrivalLane="0" arrivalPos="random">
        <route edges="edge-south-SN edge-east-WE"/>
    </vehicle>
    <vehicle id="car_type_2-flow-route-edge-west-WE_0_random-edge-east-WE_0_random--7477408607216681839---3941291921516263369--0-1.2" type="actor-car_type_2-758996955329437936" depart="288.00" departLane="0" departPos="random" departSpeed="max" arrivalLane="0" arrivalPos="random">
        <route edges="edge-west-WE edge-east-WE"/>
    </vehicle>
    <vehicle id="car_type_2-flow-route-edge-west-WE_1_random-edge-east-WE_1_random-1150677805683799947---3941291921516263369--1-1.2" type="actor-car_type_2-758996955329437936" depart="288.00" departLane="1" departPos="random" departSpeed="max" arrivalLane="1" arrivalPos="random">
        <route edges="edge-west-WE edge-east-WE"/>
    </vehicle>
    <vehicle id="car_type_3-flow-route-edge-east-EW_0_random-edge-west-EW_0_max-8861631089998972976---3941291921516263369--2-2.2" type="actor-car_type_3--5397758328833434971" depart="288.00" departLane="0" departPos="random" departSpeed="max" arrivalLane="0" arrivalPos="max">
        <route edges="edge-east-EW edge-west-EW"/>
    </vehicle>
    <vehicle id="car_type_3-flow-route-edge-east-EW_1_random-edge-west-EW_1_max--6951023746137404042---3941291921516263369--3-2.2" type="actor-car_type_3--5397758328833434971" depart="288.00" departLane="1" departPos="random" departSpeed="max" arrivalLane="1" arrivalPos="max">
        <route edges="edge-east-EW edge-west-EW"/>
    </vehicle>
    <vehicle id="car_type_3-flow-route-edge-south-SN_0_random-edge-east-WE_0_random-3756341774266760014---3941291921516263369--4-2.2" type="actor-car_type_3--5397758328833434971" depart="288.00" departLane="0" departPos="random" departSpeed="max" arrivalLane="0" arrivalPos="random">
        <route edges="edge-south-SN edge-east-WE"/>
    </vehicle>
    <vehicle id="car_type_3-flow-route-edge-west-WE_0_random-edge-east-WE_0_random--7477408607216681839---3941291921516263369--0-2.2" type="actor-car_type_3--5397758328833434971" depart="288.00" departLane="0" departPos="random" departSpeed="max" arrivalLane="0" arrivalPos="random">
        <route edges="edge-west-WE edge-east-WE"/>
    </vehicle>
    <vehicle id="car_type_3-flow-route-edge-west-WE_1_random-edge-east-WE_1_random-1150677805683799947---3941291921516263369--1-2.2" type="actor-car_type_3--5397758328833434971" depart="288.00" departLane="1" departPos="random" departSpeed="max" arrivalLane="1" arrivalPos="random">
        <route edges="edge-west-WE edge-east-WE"/>
    </vehicle>
    <vehicle id="car_type_4-flow-route-edge-east-EW_0_random-edge-west-EW_0_max-8861631089998972976---3941291921516263369--2-3.2" type="actor-car_type_4-5818789177392833574" depart="288.00" departLane="0" departPos="random" departSpeed="max" arrivalLane="0" arrivalPos="max">
        <route edges="edge-east-EW edge-west-EW"/>
    </vehicle>
    <vehicle id="car_type_4-flow-route-edge-east-EW_1_random-edge-west-EW_1_max--6951023746137404042---3941291921516263369--3-3.2" type="actor-car_type_4-5818789177392833574" depart="288.00" departLane="1" departPos="random" departSpeed="max" arrivalLane="1" arrivalPos="max">
        <route edges="edge-east-EW edge-west-EW"/>
    </vehicle>
    <vehicle id="car_type_4-flow-route-edge-south-SN_0_random-edge-east-WE_0_random-3756341774266760014---3941291921516263369--4-3.2" type="actor-car_type_4-5818789177392833574" depart="288.00" departLane="0" departPos="random" departSpeed="max" arrivalLane="0" arrivalPos="random">
        <route edges="edge-south-SN edge-east-WE"/>
    </vehicle>
    <vehicle id="car_type_4-flow-route-edge-west-WE_0_random-edge-east-WE_0_random--7477408607216681839---3941291921516263369--0-3.2" type="actor-car_type_4-5818789177392833574" depart="288.00" departLane="0" departPos="random" departSpeed="max" arrivalLane="0" arrivalPos="random">
        <route edges="edge-west-WE edge-east-WE"/>
    </vehicle>
    <vehicle id="car_type_4-flow-route-edge-west-WE_1_random-edge-east-WE_1_random-1150677805683799947---3941291921516263369--1-3.2" type="actor-car_type_4-5818789177392833574" depart="288.00" departLane="1" departPos="random" departSpeed="max" arrivalLane="1" arrivalPos="random">
        <route edges="edge-west-WE edge-east-WE"/>
    </vehicle>
    <vehicle id="car_type_1-flow-route-edge-east-EW_0_random-edge-west-EW_0_max-8861631089998972976---3941291921516263369--2-0.3" type="actor-car_type_1-1375347530988257184" depart="432.00" departLane="0" departPos="random" departSpeed="max" arrivalLane="0" arrivalPos="max">
        <route edges="edge-east-EW edge-west-EW"/>
    </vehicle>
    <vehicle id="car_type_1-flow-route-edge-east-EW_1_random-edge-west-EW_1_max--6951023746137404042---3941291921516263369--3-0.3" type="actor-car_type_1-1375347530988257184" depart="432.00" departLane="1" departPos="random" departSpeed="max" arrivalLane="1" arrivalPos="max">
        <route edges="edge-east-EW edge-west-EW"/>
    </vehicle>
    <vehicle id="car_type_1-flow-route-edge-south-SN_0_random-edge-east-WE_0_random-3756341774266760014---3941291921516263369--4-0.3" type="actor-car_type_1-1375347530988257184" depart="432.00" departLane="0" departPos="random" departSpeed="max" arrivalLane="0" arrivalPos="random">
        <route edges="edge-south-SN edge-east-WE"/>
    </vehicle>
    <vehicle id="car_type_1-flow-route-edge-west-WE_0_random-edge-east-WE_0_random--7477408607216681839---3941291921516263369--0-0.3" type="actor-car_type_1-1375347530988257184" depart="432.00" departLane="0" departPos="random" departSpeed="max" arrivalLane="0" arrivalPos="random">
        <route edges="edge-west-WE edge-east-WE"/>
    </vehicle>
    <vehicle id="car_type_1-flow-route-edge-west-WE_1_random-edge-east-WE_1_random-1150677805683799947---3941291921516263369--1-0.3" type="actor-car_type_1-1375347530988257184" depart="432.00" departLane="1" departPos="random" departSpeed="max" arrivalLane="1" arrivalPos="random">
        <route edges="edge-west-WE edge-east-WE"/>
    </vehicle>
    <vehicle id="car_type_2-flow-route-edge-east-EW_0_random-edge-west-EW_0_max-8861631089998972976---3941291921516263369--2-1.3" type="actor-car_type_2-758996955329437936" depart="432.00" departLane="0" departPos="random" departSpeed="max" arrivalLane="0" arrivalPos="max">
        <route edges="edge-east-EW edge-west-EW"/>
    </vehicle>
    <vehicle id="car_type_2-flow-route-edge-east-EW_1_random-edge-west-EW_1_max--6951023746137404042---3941291921516263369--3-1.3" type="actor-car_type_2-758996955329437936" depart="432.00" departLane="1" departPos="random" departSpeed="max" arrivalLane="1" arrivalPos="max">
        <route edges="edge-east-EW edge-west-EW"/>
    </vehicle>
    <vehicle id="car_type_2-flow-route-edge-south-SN_0_random-edge-east-WE_0_random-3756341774266760014---3941291921516263369--4-1.3" type="actor-car_type_2-758996955329437936" depart="432.00" departLane="0" departPos="random" departSpeed="max" arrivalLane="0" arrivalPos="random">
        <route edges="edge-south-SN edge-east-WE"/>
    </vehicle>
    <vehicle id="car_type_2-flow-route-edge-west-WE_0_random-edge-east-WE_0_random--7477408607216681839---3941291921516263369--0-1.3" type="actor-car_type_2-758996955329437936" depart="432.00" departLane="0" departPos="random" departSpeed="max" arrivalLane="0" arrivalPos="random">
        <route edges="edge-west-WE edge-east-WE"/>
    </vehicle>
    <vehicle id="car_type_2-flow-route-edge-west-WE_1_random-edge-east-WE_1_random-1150677805683799947---3941291921516263369--1-1.3" type="actor-car_type_2-758996955329437936" depart="432.00" departLane="1" departPos="random" departSpeed="max" arrivalLane="1" arrivalPos="random">
        <route edges="edge-west-WE edge-east-WE"/>
    </vehicle>
    <vehicle id="car_type_3-flow-route-edge-east-EW_0_random-edge-west-EW_0_max-8861631089998972976---3941291921516263369--2-2.3" type="actor-car_type_3--5397758328833434971" depart="432.00" departLane="0" departPos="random" departSpeed="max" arrivalLane="0" arrivalPos="max">
        <route edges="edge-east-EW edge-west-EW"/>
    </vehicle>
    <vehicle id="car_type_3-flow-route-edge-east-EW_1_random-edge-west-EW_1_max--6951023746137404042---3941291921516263369--3-2.3" type="actor-car_type_3--5397758328833434971" depart="432.00" departLane="1" departPos="random" departSpeed="max" arrivalLane="1" arrivalPos="max">
        <route edges="edge-east-EW edge-west-EW"/>
    </vehicle>
    <vehicle id="car_type_3-flow-route-edge-south-SN_0_random-edge-east-WE_0_random-3756341774266760014---3941291921516263369--4-2.3" type="actor-car_type_3--5397758328833434971" depart="432.00" departLane="0" departPos="random" departSpeed="max" arrivalLane="0" arrivalPos="random">
        <route edges="edge-south-SN edge-east-WE"/>
    </vehicle>
    <vehicle id="car_type_3-flow-route-edge-west-WE_0_random-edge-east-WE_0_random--7477408607216681839---3941291921516263369--0-2.3" type="actor-car_type_3--5397758328833434971" depart="432.00" departLane="0" departPos="random" departSpeed="max" arrivalLane="0" arrivalPos="random">
        <route edges="edge-west-WE edge-east-WE"/>
    </vehicle>
    <vehicle id="car_type_3-flow-route-edge-west-WE_1_random-edge-east-WE_1_random-1150677805683799947---3941291921516263369--1-2.3" type="actor-car_type_3--5397758328833434971" depart="432.00" departLane="1" departPos="random" departSpeed="max" arrivalLane="1" arrivalPos="random">
        <route edges="edge-west-WE edge-east-WE"/>
    </vehicle>
    <vehicle id="car_type_4-flow-route-edge-east-EW_0_random-edge-west-EW_0_max-8861631089998972976---3941291921516263369--2-3.3" type="actor-car_type_4-5818789177392833574" depart="432.00" departLane="0" departPos="random" departSpeed="max" arrivalLane="0" arrivalPos="max">
        <route edges="edge-east-EW edge-west-EW"/>
    </vehicle>
    <vehicle id="car_type_4-flow-route-edge-east-EW_1_random-edge-west-EW_1_max--6951023746137404042---3941291921516263369--3-3.3" type="actor-car_type_4-5818789177392833574" depart="432.00" departLane="1" departPos="random" departSpeed="max" arrivalLane="1" arrivalPos="max">
        <route edges="edge-east-EW edge-west-EW"/>
    </vehicle>
    <vehicle id="car_type_4-flow-route-edge-south-SN_0_random-edge-east-WE_0_random-3756341774266760014---3941291921516263369--4-3.3" type="actor-car_type_4-5818789177392833574" depart="432.00" departLane="0" departPos="random" departSpeed="max" arrivalLane="0" arrivalPos="random">
        <route edges="edge-south-SN edge-east-WE"/>
    </vehicle>
    <vehicle id="car_type_4-flow-route-edge-west-WE_0_random-edge-east-WE_0_random--7477408607216681839---3941291921516263369--0-3.3" type="actor-car_type_4-5818789177392833574" depart="432.00" departLane="0" departPos="random" departSpeed="max" arrivalLane="0" arrivalPos="random">
        <route edges="edge-west-WE edge-east-WE"/>
    </vehicle>