<?xml version="1.0" encoding="UTF-8"?>

<!-- generated on 2021-10-23 11:43:54 by Eclipse SUMO duarouter Version 1.10.0
<configuration xmlns:xsi="http://www.w3.org/2001/XMLSchema-instance" xsi:noNamespaceSchemaLocation="http://sumo.dlr.de/xsd/duarouterConfiguration.xsd">

    <input>
        <net-file value="/home/automan/Project3/NNLS_R1/scenarios/left_turn/map.net.xml"/>
        <route-files value="/tmp/tmpew2yyp1s/trips.trips.xml"/>
    </input>

    <output>
        <output-file value="/home/automan/Project3/NNLS_R1/scenarios/left_turn/traffic/traffic_937.rou.xml"/>
        <alternatives-output value="/home/automan/Project3/NNLS_R1/scenarios/left_turn/traffic/traffic_937.rou.alt.xml"/>
    </output>

    <processing>
        <unsorted-input value="true"/>
        <repair value="true"/>
    </processing>

    <report>
        <error-log value="/home/automan/.smarts/_duarouter_routing/traffic/traffic_937.log"/>
        <no-step-log value="true"/>
    </report>

    <random_number>
        <seed value="937"/>
    </random_number>

</configuration>
-->

<routes xmlns:xsi="http://www.w3.org/2001/XMLSchema-instance" xsi:noNamespaceSchemaLocation="http://sumo.dlr.de/xsd/routes_file.xsd">
    <vType id="actor-car_type_1--2336077879165276640" minGap="3.67" maxSpeed="55.50" speedFactor="normc(0.77,0.10,0.20,2.00)" vClass="passenger" impatience="0.52" lcCooperative="0.15461382698652848" lcSpeedGain="1.7818165667393844" lcImpatience="0.3640957060266947" jmIgnoreFoeProb="0.34933056046500244" accel="2.6" decel="4.5" sigma="0.5586773239706887"/>
    <vehicle id="car_type_1-flow-route-edge-east-EW_0_random-edge-west-EW_0_max-8861631089998972976--7165430450042449321--2-0.0" type="actor-car_type_1--2336077879165276640" depart="0.00" departLane="0" departPos="random" departSpeed="max" arrivalLane="0" arrivalPos="max">
        <route edges="edge-east-EW edge-west-EW"/>
    </vehicle>
    <vehicle id="car_type_1-flow-route-edge-east-EW_1_random-edge-west-EW_1_max--6951023746137404042--7165430450042449321--3-0.0" type="actor-car_type_1--2336077879165276640" depart="0.00" departLane="1" departPos="random" departSpeed="max" arrivalLane="1" arrivalPos="max">
        <route edges="edge-east-EW edge-west-EW"/>
    </vehicle>
    <vehicle id="car_type_1-flow-route-edge-south-SN_0_random-edge-east-WE_0_random-3756341774266760014--7165430450042449321--4-0.0" type="actor-car_type_1--2336077879165276640" depart="0.00" departLane="0" departPos="random" departSpeed="max" arrivalLane="0" arrivalPos="random">
        <route edges="edge-south-SN edge-east-WE"/>
    </vehicle>
    <vehicle id="car_type_1-flow-route-edge-west-WE_0_random-edge-east-WE_0_random--7477408607216681839--7165430450042449321--0-0.0" type="actor-car_type_1--2336077879165276640" depart="0.00" departLane="0" departPos="random" departSpeed="max" arrivalLane="0" arrivalPos="random">
        <route edges="edge-west-WE edge-east-WE"/>
    </vehicle>
    <vehicle id="car_type_1-flow-route-edge-west-WE_1_random-edge-east-WE_1_random-1150677805683799947--7165430450042449321--1-0.0" type="actor-car_type_1--2336077879165276640" depart="0.00" departLane="1" departPos="random" departSpeed="max" arrivalLane="1" arrivalPos="random">
        <route edges="edge-west-WE edge-east-WE"/>
    </vehicle>
    <vType id="actor-car_type_2--3465298148685948203" minGap="2.16" maxSpeed="55.50" speedFactor="normc(0.83,0.10,0.20,2.00)" vClass="passenger" impatience="0.96" lcCooperative="0.6867879160145678" lcSpeedGain="1.7813101066392605" lcImpatience="0.6505630576923955" jmIgnoreFoeProb="0.6477710472284273" accel="2.6" decel="4.5" sigma="0.4750162080199859"/>
    <vehicle id="car_type_2-flow-route-edge-east-EW_0_random-edge-west-EW_0_max-8861631089998972976--7165430450042449321--2-1.0" type="actor-car_type_2--3465298148685948203" depart="0.00" departLane="0" departPos="random" departSpeed="max" arrivalLane="0" arrivalPos="max">
        <route edges="edge-east-EW edge-west-EW"/>
    </vehicle>
    <vehicle id="car_type_2-flow-route-edge-east-EW_1_random-edge-west-EW_1_max--6951023746137404042--7165430450042449321--3-1.0" type="actor-car_type_2--3465298148685948203" depart="0.00" departLane="1" departPos="random" departSpeed="max" arrivalLane="1" arrivalPos="max">
        <route edges="edge-east-EW edge-west-EW"/>
    </vehicle>
    <vehicle id="car_type_2-flow-route-edge-south-SN_0_random-edge-east-WE_0_random-3756341774266760014--7165430450042449321--4-1.0" type="actor-car_type_2--3465298148685948203" depart="0.00" departLane="0" departPos="random" departSpeed="max" arrivalLane="0" arrivalPos="random">
        <route edges="edge-south-SN edge-east-WE"/>
    </vehicle>
    <vehicle id="car_type_2-flow-route-edge-west-WE_0_random-edge-east-WE_0_random--7477408607216681839--7165430450042449321--0-1.0" type="actor-car_type_2--3465298148685948203" depart="0.00" departLane="0" departPos="random" departSpeed="max" arrivalLane="0" arrivalPos="random">
        <route edges="edge-west-WE edge-east-WE"/>
    </vehicle>
    <vehicle id="car_type_2-flow-route-edge-west-WE_1_random-edge-east-WE_1_random-1150677805683799947--7165430450042449321--1-1.0" type="actor-car_type_2--3465298148685948203" depart="0.00" departLane="1" departPos="random" departSpeed="max" arrivalLane="1" arrivalPos="random">
        <route edges="edge-west-WE edge-east-WE"/>
    </vehicle>
    <vType id="actor-car_type_3--1671982947293064027" minGap="3.97" maxSpeed="55.50" speedFactor="normc(0.85,0.10,0.20,2.00)" vClass="passenger" impatience="0.87" lcCooperative="0.20115339387918463" lcSpeedGain="1.8570482490621711" lcImpatience="0.526842087278459" jmIgnoreFoeProb="0.3170734511058607" accel="2.6" decel="4.5" sigma="0.7651767128505489"/>
    <vehicle id="car_type_3-flow-route-edge-east-EW_0_random-edge-west-EW_0_max-8861631089998972976--7165430450042449321--2-2.0" type="actor-car_type_3--1671982947293064027" depart="0.00" departLane="0" departPos="random" departSpeed="max" arrivalLane="0" arrivalPos="max">
        <route edges="edge-east-EW edge-west-EW"/>
    </vehicle>
    <vehicle id="car_type_3-flow-route-edge-east-EW_1_random-edge-west-EW_1_max--6951023746137404042--7165430450042449321--3-2.0" type="actor-car_type_3--1671982947293064027" depart="0.00" departLane="1" departPos="random" departSpeed="max" arrivalLane="1" arrivalPos="max">
        <route edges="edge-east-EW edge-west-EW"/>
    </vehicle>
    <vehicle id="car_type_3-flow-route-edge-south-SN_0_random-edge-east-WE_0_random-3756341774266760014--7165430450042449321--4-2.0" type="actor-car_type_3--1671982947293064027" depart="0.00" departLane="0" departPos="random" departSpeed="max" arrivalLane="0" arrivalPos="random">
        <route edges="edge-south-SN edge-east-WE"/>
    </vehicle>
    <vehicle id="car_type_3-flow-route-edge-west-WE_0_random-edge-east-WE_0_random--7477408607216681839--7165430450042449321--0-2.0" type="actor-car_type_3--1671982947293064027" depart="0.00" departLane="0" departPos="random" departSpeed="max" arrivalLane="0" arrivalPos="random">
        <route edges="edge-west-WE edge-east-WE"/>
    </vehicle>
    <vehicle id="car_type_3-flow-route-edge-west-WE_1_random-edge-east-WE_1_random-1150677805683799947--7165430450042449321--1-2.0" type="actor-car_type_3--1671982947293064027" depart="0.00" departLane="1" departPos="random" departSpeed="max" arrivalLane="1" arrivalPos="random">
        <route edges="edge-west-WE edge-east-WE"/>
    </vehicle>
    <vType id="actor-car_type_4-7991670800364472742" minGap="2.60" maxSpeed="55.50" speedFactor="normc(0.69,0.10,0.20,2.00)" vClass="passenger" impatience="0.23" lcCooperative="0.08904282300070165" lcSpeedGain="1.1446272773191832" lcImpatience="0.14898723311638928" jmIgnoreFoeProb="0.1127422854444321" accel="2.6" decel="4.5" sigma="0.18454158979186747"/>
    <vehicle id="car_type_4-flow-route-edge-east-EW_0_random-edge-west-EW_0_max-8861631089998972976--7165430450042449321--2-3.0" type="actor-car_type_4-7991670800364472742" depart="0.00" departLane="0" departPos="random" departSpeed="max" arrivalLane="0" arrivalPos="max">
        <route edges="edge-east-EW edge-west-EW"/>
    </vehicle>
    <vehicle id="car_type_4-flow-route-edge-east-EW_1_random-edge-west-EW_1_max--6951023746137404042--7165430450042449321--3-3.0" type="actor-car_type_4-7991670800364472742" depart="0.00" departLane="1" departPos="random" departSpeed="max" arrivalLane="1" arrivalPos="max">
        <route edges="edge-east-EW edge-west-EW"/>
    </vehicle>
    <vehicle id="car_type_4-flow-route-edge-south-SN_0_random-edge-east-WE_0_random-3756341774266760014--7165430450042449321--4-3.0" type="actor-car_type_4-7991670800364472742" depart="0.00" departLane="0" departPos="random" departSpeed="max" arrivalLane="0" arrivalPos="random">
        <route edges="edge-south-SN edge-east-WE"/>
    </vehicle>
    <vehicle id="car_type_4-flow-route-edge-west-WE_0_random-edge-east-WE_0_random--7477408607216681839--7165430450042449321--0-3.0" type="actor-car_type_4-7991670800364472742" depart="0.00" departLane="0" departPos="random" departSpeed="max" arrivalLane="0" arrivalPos="random">
        <route edges="edge-west-WE edge-east-WE"/>
    </vehicle>
    <vehicle id="car_type_4-flow-route-edge-west-WE_1_random-edge-east-WE_1_random-1150677805683799947--7165430450042449321--1-3.0" type="actor-car_type_4-7991670800364472742" depart="0.00" departLane="1" departPos="random" departSpeed="max" arrivalLane="1" arrivalPos="random">
        <route edges="edge-west-WE edge-east-WE"/>
    </vehicle>
    <vehicle id="car_type_1-flow-route-edge-east-EW_0_random-edge-west-EW_0_max-8861631089998972976--7165430450042449321--2-0.1" type="actor-car_type_1--2336077879165276640" depart="144.00" departLane="0" departPos="random" departSpeed="max" arrivalLane="0" arrivalPos="max">
        <route edges="edge-east-EW edge-west-EW"/>
    </vehicle>
    <vehicle id="car_type_1-flow-route-edge-east-EW_1_random-edge-west-EW_1_max--6951023746137404042--7165430450042449321--3-0.1" type="actor-car_type_1--2336077879165276640" depart="144.00" departLane="1" departPos="random" departSpeed="max" arrivalLane="1" arrivalPos="max">
        <route edges="edge-east-EW edge-west-EW"/>
    </vehicle>
    <vehicle id="car_type_1-flow-route-edge-south-SN_0_random-edge-east-WE_0_random-3756341774266760014--7165430450042449321--4-0.1" type="actor-car_type_1--2336077879165276640" depart="144.00" departLane="0" departPos="random" departSpeed="max" arrivalLane="0" arrivalPos="random">
        <route edges="edge-south-SN edge-east-WE"/>
    </vehicle>
    <vehicle id="car_type_1-flow-route-edge-west-WE_0_random-edge-east-WE_0_random--7477408607216681839--7165430450042449321--0-0.1" type="actor-car_type_1--2336077879165276640" depart="144.00" departLane="0" departPos="random" departSpeed="max" arrivalLane="0" arrivalPos="random">
        <route edges="edge-west-WE edge-east-WE"/>
    </vehicle>
    <vehicle id="car_type_1-flow-route-edge-west-WE_1_random-edge-east-WE_1_random-1150677805683799947--7165430450042449321--1-0.1" type="actor-car_type_1--2336077879165276640" depart="144.00" departLane="1" departPos="random" departSpeed="max" arrivalLane="1" arrivalPos="random">
        <route edges="edge-west-WE edge-east-WE"/>
    </vehicle>
    <vehicle id="car_type_2-flow-route-edge-east-EW_0_random-edge-west-EW_0_max-8861631089998972976--7165430450042449321--2-1.1" type="actor-car_type_2--3465298148685948203" depart="144.00" departLane="0" departPos="random" departSpeed="max" arrivalLane="0" arrivalPos="max">
        <route edges="edge-east-EW edge-west-EW"/>
    </vehicle>
    <vehicle id="car_type_2-flow-route-edge-east-EW_1_random-edge-west-EW_1_max--6951023746137404042--7165430450042449321--3-1.1" type="actor-car_type_2--3465298148685948203" depart="144.00" departLane="1" departPos="random" departSpeed="max" arrivalLane="1" arrivalPos="max">
        <route edges="edge-east-EW edge-west-EW"/>
    </vehicle>
    <vehicle id="car_type_2-flow-route-edge-south-SN_0_random-edge-east-WE_0_random-3756341774266760014--7165430450042449321--4-1.1" type="actor-car_type_2--3465298148685948203" depart="144.00" departLane="0" departPos="random" departSpeed="max" arrivalLane="0" arrivalPos="random">
        <route edges="edge-south-SN edge-east-WE"/>
    </vehicle>
    <vehicle id="car_type_2-flow-route-edge-west-WE_0_random-edge-east-WE_0_random--7477408607216681839--7165430450042449321--0-1.1" type="actor-car_type_2--3465298148685948203" depart="144.00" departLane="0" departPos="random" departSpeed="max" arrivalLane="0" arrivalPos="random">
        <route edges="edge-west-WE edge-east-WE"/>
    </vehicle>
    <vehicle id="car_type_2-flow-route-edge-west-WE_1_random-edge-east-WE_1_random-1150677805683799947--7165430450042449321--1-1.1" type="actor-car_type_2--3465298148685948203" depart="144.00" departLane="1" departPos="random" departSpeed="max" arrivalLane="1" arrivalPos="random">
        <route edges="edge-west-WE edge-east-WE"/>
    </vehicle>
    <vehicle id="car_type_3-flow-route-edge-east-EW_0_random-edge-west-EW_0_max-8861631089998972976--7165430450042449321--2-2.1" type="actor-car_type_3--1671982947293064027" depart="144.00" departLane="0" departPos="random" departSpeed="max" arrivalLane="0" arrivalPos="max">
        <route edges="edge-east-EW edge-west-EW"/>
    </vehicle>
    <vehicle id="car_type_3-flow-route-edge-east-EW_1_random-edge-west-EW_1_max--6951023746137404042--7165430450042449321--3-2.1" type="actor-car_type_3--1671982947293064027" depart="144.00" departLane="1" departPos="random" departSpeed="max" arrivalLane="1" arrivalPos="max">
        <route edges="edge-east-EW edge-west-EW"/>
    </vehicle>
    <vehicle id="car_type_3-flow-route-edge-south-SN_0_random-edge-east-WE_0_random-3756341774266760014--7165430450042449321--4-2.1" type="actor-car_type_3--1671982947293064027" depart="144.00" departLane="0" departPos="random" departSpeed="max" arrivalLane="0" arrivalPos="random">
        <route edges="edge-south-SN edge-east-WE"/>
    </vehicle>
    <vehicle id="car_type_3-flow-route-edge-west-WE_0_random-edge-east-WE_0_random--7477408607216681839--7165430450042449321--0-2.1" type="actor-car_type_3--1671982947293064027" depart="144.00" departLane="0" departPos="random" departSpeed="max" arrivalLane="0" arrivalPos="random">
        <route edges="edge-west-WE edge-east-WE"/>
    </vehicle>
    <vehicle id="car_type_3-flow-route-edge-west-WE_1_random-edge-east-WE_1_random-1150677805683799947--7165430450042449321--1-2.1" type="actor-car_type_3--1671982947293064027" depart="144.00" departLane="1" departPos="random" departSpeed="max" arrivalLane="1" arrivalPos="random">
        <route edges="edge-west-WE edge-east-WE"/>
    </vehicle>
    <vehicle id="car_type_4-flow-route-edge-east-EW_0_random-edge-west-EW_0_max-8861631089998972976--7165430450042449321--2-3.1" type="actor-car_type_4-7991670800364472742" depart="144.00" departLane="0" departPos="random" departSpeed="max" arrivalLane="0" arrivalPos="max">
        <route edges="edge-east-EW edge-west-EW"/>
    </vehicle>
    <vehicle id="car_type_4-flow-route-edge-east-EW_1_random-edge-west-EW_1_max--6951023746137404042--7165430450042449321--3-3.1" type="actor-car_type_4-7991670800364472742" depart="144.00" departLane="1" departPos="random" departSpeed="max" arrivalLane="1" arrivalPos="max">
        <route edges="edge-east-EW edge-west-EW"/>
    </vehicle>
    <vehicle id="car_type_4-flow-route-edge-south-SN_0_random-edge-east-WE_0_random-3756341774266760014--7165430450042449321--4-3.1" type="actor-car_type_4-7991670800364472742" depart="144.00" departLane="0" departPos="random" departSpeed="max" arrivalLane="0" arrivalPos="random">
        <route edges="edge-south-SN edge-east-WE"/>
    </vehicle>
    <vehicle id="car_type_4-flow-route-edge-west-WE_0_random-edge-east-WE_0_random--7477408607216681839--7165430450042449321--0-3.1" type="actor-car_type_4-7991670800364472742" depart="144.00" departLane="0" departPos="random" departSpeed="max" arrivalLane="0" arrivalPos="random">
        <route edges="edge-west-WE edge-east-WE"/>
    </vehicle>
    <vehicle id="car_type_4-flow-route-edge-west-WE_1_random-edge-east-WE_1_random-1150677805683799947--7165430450042449321--1-3.1" type="actor-car_type_4-7991670800364472742" depart="144.00" departLane="1" departPos="random" departSpeed="max" arrivalLane="1" arrivalPos="random">
        <route edges="edge-west-WE edge-east-WE"/>
    </vehicle>
    <vehicle id="car_type_1-flow-route-edge-east-EW_0_random-edge-west-EW_0_max-8861631089998972976--7165430450042449321--2-0.2" type="actor-car_type_1--2336077879165276640" depart="288.00" departLane="0" departPos="random" departSpeed="max" arrivalLane="0" arrivalPos="max">
        <route edges="edge-east-EW edge-west-EW"/>
    </vehicle>
    <vehicle id="car_type_1-flow-route-edge-east-EW_1_random-edge-west-EW_1_max--6951023746137404042--7165430450042449321--3-0.2" type="actor-car_type_1--2336077879165276640" depart="288.00" departLane="1" departPos="random" departSpeed="max" arrivalLane="1" arrivalPos="max">
        <route edges="edge-east-EW edge-west-EW"/>
    </vehicle>
    <vehicle id="car_type_1-flow-route-edge-south-SN_0_random-edge-east-WE_0_random-3756341774266760014--7165430450042449321--4-0.2" type="actor-car_type_1--2336077879165276640" depart="288.00" departLane="0" departPos="random" departSpeed="max" arrivalLane="0" arrivalPos="random">
        <route edges="edge-south-SN edge-east-WE"/>
    </vehicle>
    <vehicle id="car_type_1-flow-route-edge-west-WE_0_random-edge-east-WE_0_random--7477408607216681839--7165430450042449321--0-0.2" type="actor-car_type_1--2336077879165276640" depart="288.00" departLane="0" departPos="random" departSpeed="max" arrivalLane="0" arrivalPos="random">
        <route edges="edge-west-WE edge-east-WE"/>
    </vehicle>
    <vehicle id="car_type_1-flow-route-edge-west-WE_1_random-edge-east-WE_1_random-1150677805683799947--7165430450042449321--1-0.2" type="actor-car_type_1--2336077879165276640" depart="288.00" departLane="1" departPos="random" departSpeed="max" arrivalLane="1" arrivalPos="random">
        <route edges="edge-west-WE edge-east-WE"/>
    </vehicle>
    <vehicle id="car_type_2-flow-route-edge-east-EW_0_random-edge-west-EW_0_max-8861631089998972976--7165430450042449321--2-1.2" type="actor-car_type_2--3465298148685948203" depart="288.00" departLane="0" departPos="random" departSpeed="max" arrivalLane="0" arrivalPos="max">
        <route edges="edge-east-EW edge-west-EW"/>
    </vehicle>
    <vehicle id="car_type_2-flow-route-edge-east-EW_1_random-edge-west-EW_1_max--6951023746137404042--7165430450042449321--3-1.2" type="actor-car_type_2--3465298148685948203" depart="288.00" departLane="1" departPos="random" departSpeed="max" arrivalLane="1" arrivalPos="max">
        <route edges="edge-east-EW edge-west-EW"/>
    </vehicle>
    <vehicle id="car_type_2-flow-route-edge-south-SN_0_random-edge-east-WE_0_random-3756341774266760014--7165430450042449321--4-1.2" type="actor-car_type_2--3465298148685948203" depart="288.00" departLane="0" departPos="random" departSpeed="max" arrivalLane="0" arrivalPos="random">
        <route edges="edge-south-SN edge-east-WE"/>
    </vehicle>
    <vehicle id="car_type_2-flow-route-edge-west-WE_0_random-edge-east-WE_0_random--7477408607216681839--7165430450042449321--0-1.2" type="actor-car_type_2--3465298148685948203" depart="288.00" departLane="0" departPos="random" departSpeed="max" arrivalLane="0" arrivalPos="random">
        <route edges="edge-west-WE edge-east-WE"/>
    </vehicle>
    <vehicle id="car_type_2-flow-route-edge-west-WE_1_random-edge-east-WE_1_random-1150677805683799947--7165430450042449321--1-1.2" type="actor-car_type_2--3465298148685948203" depart="288.00" departLane="1" departPos="random" departSpeed="max" arrivalLane="1" arrivalPos="random">
        <route edges="edge-west-WE edge-east-WE"/>
    </vehicle>
    <vehicle id="car_type_3-flow-route-edge-east-EW_0_random-edge-west-EW_0_max-8861631089998972976--7165430450042449321--2-2.2" type="actor-car_type_3--1671982947293064027" depart="288.00" departLane="0" departPos="random" departSpeed="max" arrivalLane="0" arrivalPos="max">
        <route edges="edge-east-EW edge-west-EW"/>
    </vehicle>
    <vehicle id="car_type_3-flow-route-edge-east-EW_1_random-edge-west-EW_1_max--6951023746137404042--7165430450042449321--3-2.2" type="actor-car_type_3--1671982947293064027" depart="288.00" departLane="1" departPos="random" departSpeed="max" arrivalLane="1" arrivalPos="max">
        <route edges="edge-east-EW edge-west-EW"/>
    </vehicle>
    <vehicle id="car_type_3-flow-route-edge-south-SN_0_random-edge-east-WE_0_random-3756341774266760014--7165430450042449321--4-2.2" type="actor-car_type_3--1671982947293064027" depart="288.00" departLane="0" departPos="random" departSpeed="max" arrivalLane="0" arrivalPos="random">
        <route edges="edge-south-SN edge-east-WE"/>
    </vehicle>
    <vehicle id="car_type_3-flow-route-edge-west-WE_0_random-edge-east-WE_0_random--7477408607216681839--7165430450042449321--0-2.2" type="actor-car_type_3--1671982947293064027" depart="288.00" departLane="0" departPos="random" departSpeed="max" arrivalLane="0" arrivalPos="random">
        <route edges="edge-west-WE edge-east-WE"/>
    </vehicle>
    <vehicle id="car_type_3-flow-route-edge-west-WE_1_random-edge-east-WE_1_random-1150677805683799947--7165430450042449321--1-2.2" type="actor-car_type_3--1671982947293064027" depart="288.00" departLane="1" departPos="random" departSpeed="max" arrivalLane="1" arrivalPos="random">
        <route edges="edge-west-WE edge-east-WE"/>
    </vehicle>
    <vehicle id="car_type_4-flow-route-edge-east-EW_0_random-edge-west-EW_0_max-8861631089998972976--7165430450042449321--2-3.2" type="actor-car_type_4-7991670800364472742" depart="288.00" departLane="0" departPos="random" departSpeed="max" arrivalLane="0" arrivalPos="max">
        <route edges="edge-east-EW edge-west-EW"/>
    </vehicle>
    <vehicle id="car_type_4-flow-route-edge-east-EW_1_random-edge-west-EW_1_max--6951023746137404042--7165430450042449321--3-3.2" type="actor-car_type_4-7991670800364472742" depart="288.00" departLane="1" departPos="random" departSpeed="max" arrivalLane="1" arrivalPos="max">
        <route edges="edge-east-EW edge-west-EW"/>
    </vehicle>
    <vehicle id="car_type_4-flow-route-edge-south-SN_0_random-edge-east-WE_0_random-3756341774266760014--7165430450042449321--4-3.2" type="actor-car_type_4-7991670800364472742" depart="288.00" departLane="0" departPos="random" departSpeed="max" arrivalLane="0" arrivalPos="random">
        <route edges="edge-south-SN edge-east-WE"/>
    </vehicle>
    <vehicle id="car_type_4-flow-route-edge-west-WE_0_random-edge-east-WE_0_random--7477408607216681839--7165430450042449321--0-3.2" type="actor-car_type_4-7991670800364472742" depart="288.00" departLane="0" departPos="random" departSpeed="max" arrivalLane="0" arrivalPos="random">
        <route edges="edge-west-WE edge-east-WE"/>
    </vehicle>
    <vehicle id="car_type_4-flow-route-edge-west-WE_1_random-edge-east-WE_1_random-1150677805683799947--7165430450042449321--1-3.2" type="actor-car_type_4-7991670800364472742" depart="288.00" departLane="1" departPos="random" departSpeed="max" arrivalLane="1" arrivalPos="random">
        <route edges="edge-west-WE edge-east-WE"/>
    </vehicle>
    <vehicle id="car_type_1-flow-route-edge-east-EW_0_random-edge-west-EW_0_max-8861631089998972976--7165430450042449321--2-0.3" type="actor-car_type_1--2336077879165276640" depart="432.00" departLane="0" departPos="random" departSpeed="max" arrivalLane="0" arrivalPos="max">
        <route edges="edge-east-EW edge-west-EW"/>
    </vehicle>
    <vehicle id="car_type_1-flow-route-edge-east-EW_1_random-edge-west-EW_1_max--6951023746137404042--7165430450042449321--3-0.3" type="actor-car_type_1--2336077879165276640" depart="432.00" departLane="1" departPos="random" departSpeed="max" arrivalLane="1" arrivalPos="max">
        <route edges="edge-east-EW edge-west-EW"/>
    </vehicle>
    <vehicle id="car_type_1-flow-route-edge-south-SN_0_random-edge-east-WE_0_random-3756341774266760014--7165430450042449321--4-0.3" type="actor-car_type_1--2336077879165276640" depart="432.00" departLane="0" departPos="random" departSpeed="max" arrivalLane="0" arrivalPos="random">
        <route edges="edge-south-SN edge-east-WE"/>
    </vehicle>
    <vehicle id="car_type_1-flow-route-edge-west-WE_0_random-edge-east-WE_0_random--7477408607216681839--7165430450042449321--0-0.3" type="actor-car_type_1--2336077879165276640" depart="432.00" departLane="0" departPos="random" departSpeed="max" arrivalLane="0" arrivalPos="random">
        <route edges="edge-west-WE edge-east-WE"/>
    </vehicle>
    <vehicle id="car_type_1-flow-route-edge-west-WE_1_random-edge-east-WE_1_random-1150677805683799947--7165430450042449321--1-0.3" type="actor-car_type_1--2336077879165276640" depart="432.00" departLane="1" departPos="random" departSpeed="max" arrivalLane="1" arrivalPos="random">
        <route edges="edge-west-WE edge-east-WE"/>
    </vehicle>
    <vehicle id="car_type_2-flow-route-edge-east-EW_0_random-edge-west-EW_0_max-8861631089998972976--7165430450042449321--2-1.3" type="actor-car_type_2--3465298148685948203" depart="432.00" departLane="0" departPos="random" departSpeed="max" arrivalLane="0" arrivalPos="max">
        <route edges="edge-east-EW edge-west-EW"/>
    </vehicle>
    <vehicle id="car_type_2-flow-route-edge-east-EW_1_random-edge-west-EW_1_max--6951023746137404042--7165430450042449321--3-1.3" type="actor-car_type_2--3465298148685948203" depart="432.00" departLane="1" departPos="random" departSpeed="max" arrivalLane="1" arrivalPos="max">
        <route edges="edge-east-EW edge-west-EW"/>
    </vehicle>
    <vehicle id="car_type_2-flow-route-edge-south-SN_0_random-edge-east-WE_0_random-3756341774266760014--7165430450042449321--4-1.3" type="actor-car_type_2--3465298148685948203" depart="432.00" departLane="0" departPos="random" departSpeed="max" arrivalLane="0" arrivalPos="random">
        <route edges="edge-south-SN edge-east-WE"/>
    </vehicle>
    <vehicle id="car_type_2-flow-route-edge-west-WE_0_random-edge-east-WE_0_random--7477408607216681839--7165430450042449321--0-1.3" type="actor-car_type_2--3465298148685948203" depart="432.00" departLane="0" departPos="random" departSpeed="max" arrivalLane="0" arrivalPos="random">
        <route edges="edge-west-WE edge-east-WE"/>
    </vehicle>
    <vehicle id="car_type_2-flow-route-edge-west-WE_1_random-edge-east-WE_1_random-1150677805683799947--7165430450042449321--1-1.3" type="actor-car_type_2--3465298148685948203" depart="432.00" departLane="1" departPos="random" departSpeed="max" arrivalLane="1" arrivalPos="random">
        <route edges="edge-west-WE edge-east-WE"/>
    </vehicle>
    <vehicle id="car_type_3-flow-route-edge-east-EW_0_random-edge-west-EW_0_max-8861631089998972976--7165430450042449321--2-2.3" type="actor-car_type_3--1671982947293064027" depart="432.00" departLane="0" departPos="random" departSpeed="max" arrivalLane="0" arrivalPos="max">
        <route edges="edge-east-EW edge-west-EW"/>
    </vehicle>
    <vehicle id="car_type_3-flow-route-edge-east-EW_1_random-edge-west-EW_1_max--6951023746137404042--7165430450042449321--3-2.3" type="actor-car_type_3--1671982947293064027" depart="432.00" departLane="1" departPos="random" departSpeed="max" arrivalLane="1" arrivalPos="max">
        <route edges="edge-east-EW edge-west-EW"/>
    </vehicle>
    <vehicle id="car_type_3-flow-route-edge-south-SN_0_random-edge-east-WE_0_random-3756341774266760014--7165430450042449321--4-2.3" type="actor-car_type_3--1671982947293064027" depart="432.00" departLane="0" departPos="random" departSpeed="max" arrivalLane="0" arrivalPos="random">
        <route edges="edge-south-SN edge-east-WE"/>
    </vehicle>
    <vehicle id="car_type_3-flow-route-edge-west-WE_0_random-edge-east-WE_0_random--7477408607216681839--7165430450042449321--0-2.3" type="actor-car_type_3--1671982947293064027" depart="432.00" departLane="0" departPos="random" departSpeed="max" arrivalLane="0" arrivalPos="random">
        <route edges="edge-west-WE edge-east-WE"/>
    </vehicle>
    <vehicle id="car_type_3-flow-route-edge-west-WE_1_random-edge-east-WE_1_random-1150677805683799947--7165430450042449321--1-2.3" type="actor-car_type_3--1671982947293064027" depart="432.00" departLane="1" departPos="random" departSpeed="max" arrivalLane="1" arrivalPos="random">
        <route edges="edge-west-WE edge-east-WE"/>
    </vehicle>
    <vehicle id="car_type_4-flow-route-edge-east-EW_0_random-edge-west-EW_0_max-8861631089998972976--7165430450042449321--2-3.3" type="actor-car_type_4-7991670800364472742" depart="432.00" departLane="0" departPos="random" departSpeed="max" arrivalLane="0" arrivalPos="max">
        <route edges="edge-east-EW edge-west-EW"/>
    </vehicle>
    <vehicle id="car_type_4-flow-route-edge-east-EW_1_random-edge-west-EW_1_max--6951023746137404042--7165430450042449321--3-3.3" type="actor-car_type_4-7991670800364472742" depart="432.00" departLane="1" departPos="random" departSpeed="max" arrivalLane="1" arrivalPos="max">
        <route edges="edge-east-EW edge-west-EW"/>
    </vehicle>
    <vehicle id="car_type_4-flow-route-edge-south-SN_0_random-edge-east-WE_0_random-3756341774266760014--7165430450042449321--4-3.3" type="actor-car_type_4-7991670800364472742" depart="432.00" departLane="0" departPos="random" departSpeed="max" arrivalLane="0" arrivalPos="random">
        <route edges="edge-south-SN edge-east-WE"/>
    </vehicle>
    <vehicle id="car_type_4-flow-route-edge-west-WE_0_random-edge-east-WE_0_random--7477408607216681839--7165430450042449321--0-3.3" type="actor-car_type_4-7991670800364472742" depart="432.00" departLane="0" departPos="random" departSpeed="max" arrivalLane="0" arrivalPos="random">
        <route edges="edge-west-WE edge-east-WE"/>
    </vehicle>