<?xml version="1.0" encoding="UTF-8"?>

<!-- generated on 2021-10-23 11:43:55 by Eclipse SUMO duarouter Version 1.10.0
<configuration xmlns:xsi="http://www.w3.org/2001/XMLSchema-instance" xsi:noNamespaceSchemaLocation="http://sumo.dlr.de/xsd/duarouterConfiguration.xsd">

    <input>
        <net-file value="/home/automan/Project3/NNLS_R1/scenarios/left_turn/map.net.xml"/>
        <route-files value="/tmp/tmphn7d8afq/trips.trips.xml"/>
    </input>

    <output>
        <output-file value="/home/automan/Project3/NNLS_R1/scenarios/left_turn/traffic/traffic_731.rou.xml"/>
        <alternatives-output value="/home/automan/Project3/NNLS_R1/scenarios/left_turn/traffic/traffic_731.rou.alt.xml"/>
    </output>

    <processing>
        <unsorted-input value="true"/>
        <repair value="true"/>
    </processing>

    <report>
        <error-log value="/home/automan/.smarts/_duarouter_routing/traffic/traffic_731.log"/>
        <no-step-log value="true"/>
    </report>

    <random_number>
        <seed value="731"/>
    </random_number>

</configuration>
-->

<routes xmlns:xsi="http://www.w3.org/2001/XMLSchema-instance" xsi:noNamespaceSchemaLocation="http://sumo.dlr.de/xsd/routes_file.xsd">
    <vType id="actor-car_type_1--7834290501202751835" minGap="2.73" maxSpeed="55.50" speedFactor="normc(0.90,0.10,0.20,2.00)" vClass="passenger" impatience="0.34" lcCooperative="0.36803774985629634" lcSpeedGain="1.1786677508199408" lcImpatience="0.6633758087375837" jmIgnoreFoeProb="0.20780216257890305" accel="2.6" decel="4.5" sigma="0.6708171971969363"/>
    <vehicle id="car_type_1-flow-route-edge-east-EW_0_random-edge-west-EW_0_max-8861631089998972976--7847324738201131855--2-0.0" type="actor-car_type_1--7834290501202751835" depart="0.00" departLane="0" departPos="random" departSpeed="max" arrivalLane="0" arrivalPos="max">
        <route edges="edge-east-EW edge-west-EW"/>
    </vehicle>
    <vehicle id="car_type_1-flow-route-edge-east-EW_1_random-edge-west-EW_1_max--6951023746137404042--7847324738201131855--3-0.0" type="actor-car_type_1--7834290501202751835" depart="0.00" departLane="1" departPos="random" departSpeed="max" arrivalLane="1" arrivalPos="max">
        <route edges="edge-east-EW edge-west-EW"/>
    </vehicle>
    <vehicle id="car_type_1-flow-route-edge-south-SN_0_random-edge-east-WE_0_random-3756341774266760014--7847324738201131855--4-0.0" type="actor-car_type_1--7834290501202751835" depart="0.00" departLane="0" departPos="random" departSpeed="max" arrivalLane="0" arrivalPos="random">
        <route edges="edge-south-SN edge-east-WE"/>
    </vehicle>
    <vehicle id="car_type_1-flow-route-edge-west-WE_0_random-edge-east-WE_0_random--7477408607216681839--7847324738201131855--0-0.0" type="actor-car_type_1--7834290501202751835" depart="0.00" departLane="0" departPos="random" departSpeed="max" arrivalLane="0" arrivalPos="random">
        <route edges="edge-west-WE edge-east-WE"/>
    </vehicle>
    <vehicle id="car_type_1-flow-route-edge-west-WE_1_random-edge-east-WE_1_random-1150677805683799947--7847324738201131855--1-0.0" type="actor-car_type_1--7834290501202751835" depart="0.00" departLane="1" departPos="random" departSpeed="max" arrivalLane="1" arrivalPos="random">
        <route edges="edge-west-WE edge-east-WE"/>
    </vehicle>
    <vType id="actor-car_type_2-186537638956461525" minGap="2.22" maxSpeed="55.50" speedFactor="normc(0.76,0.10,0.20,2.00)" vClass="passenger" impatience="0.26" lcCooperative="0.7221562301051927" lcSpeedGain="1.750732075684867" lcImpatience="0.9354677230616588" jmIgnoreFoeProb="0.17425818832483697" accel="2.6" decel="4.5" sigma="0.6217206618046234"/>
    <vehicle id="car_type_2-flow-route-edge-east-EW_0_random-edge-west-EW_0_max-8861631089998972976--7847324738201131855--2-1.0" type="actor-car_type_2-186537638956461525" depart="0.00" departLane="0" departPos="random" departSpeed="max" arrivalLane="0" arrivalPos="max">
        <route edges="edge-east-EW edge-west-EW"/>
    </vehicle>
    <vehicle id="car_type_2-flow-route-edge-east-EW_1_random-edge-west-EW_1_max--6951023746137404042--7847324738201131855--3-1.0" type="actor-car_type_2-186537638956461525" depart="0.00" departLane="1" departPos="random" departSpeed="max" arrivalLane="1" arrivalPos="max">
        <route edges="edge-east-EW edge-west-EW"/>
    </vehicle>
    <vehicle id="car_type_2-flow-route-edge-south-SN_0_random-edge-east-WE_0_random-3756341774266760014--7847324738201131855--4-1.0" type="actor-car_type_2-186537638956461525" depart="0.00" departLane="0" departPos="random" departSpeed="max" arrivalLane="0" arrivalPos="random">
        <route edges="edge-south-SN edge-east-WE"/>
    </vehicle>
    <vehicle id="car_type_2-flow-route-edge-west-WE_0_random-edge-east-WE_0_random--7477408607216681839--7847324738201131855--0-1.0" type="actor-car_type_2-186537638956461525" depart="0.00" departLane="0" departPos="random" departSpeed="max" arrivalLane="0" arrivalPos="random">
        <route edges="edge-west-WE edge-east-WE"/>
    </vehicle>
    <vehicle id="car_type_2-flow-route-edge-west-WE_1_random-edge-east-WE_1_random-1150677805683799947--7847324738201131855--1-1.0" type="actor-car_type_2-186537638956461525" depart="0.00" departLane="1" departPos="random" departSpeed="max" arrivalLane="1" arrivalPos="random">
        <route edges="edge-west-WE edge-east-WE"/>
    </vehicle>
    <vType id="actor-car_type_3--6346163823277068256" minGap="2.31" maxSpeed="55.50" speedFactor="normc(0.95,0.10,0.20,2.00)" vClass="passenger" impatience="0.08" lcCooperative="0.09098532935863435" lcSpeedGain="1.8575759021589318" lcImpatience="0.1495031412443043" jmIgnoreFoeProb="0.06818659001866167" accel="2.6" decel="4.5" sigma="0.8368525868433367"/>
    <vehicle id="car_type_3-flow-route-edge-east-EW_0_random-edge-west-EW_0_max-8861631089998972976--7847324738201131855--2-2.0" type="actor-car_type_3--6346163823277068256" depart="0.00" departLane="0" departPos="random" departSpeed="max" arrivalLane="0" arrivalPos="max">
        <route edges="edge-east-EW edge-west-EW"/>
    </vehicle>
    <vehicle id="car_type_3-flow-route-edge-east-EW_1_random-edge-west-EW_1_max--6951023746137404042--7847324738201131855--3-2.0" type="actor-car_type_3--6346163823277068256" depart="0.00" departLane="1" departPos="random" departSpeed="max" arrivalLane="1" arrivalPos="max">
        <route edges="edge-east-EW edge-west-EW"/>
    </vehicle>
    <vehicle id="car_type_3-flow-route-edge-south-SN_0_random-edge-east-WE_0_random-3756341774266760014--7847324738201131855--4-2.0" type="actor-car_type_3--6346163823277068256" depart="0.00" departLane="0" departPos="random" departSpeed="max" arrivalLane="0" arrivalPos="random">
        <route edges="edge-south-SN edge-east-WE"/>
    </vehicle>
    <vehicle id="car_type_3-flow-route-edge-west-WE_0_random-edge-east-WE_0_random--7477408607216681839--7847324738201131855--0-2.0" type="actor-car_type_3--6346163823277068256" depart="0.00" departLane="0" departPos="random" departSpeed="max" arrivalLane="0" arrivalPos="random">
        <route edges="edge-west-WE edge-east-WE"/>
    </vehicle>
    <vehicle id="car_type_3-flow-route-edge-west-WE_1_random-edge-east-WE_1_random-1150677805683799947--7847324738201131855--1-2.0" type="actor-car_type_3--6346163823277068256" depart="0.00" departLane="1" departPos="random" departSpeed="max" arrivalLane="1" arrivalPos="random">
        <route edges="edge-west-WE edge-east-WE"/>
    </vehicle>
    <vType id="actor-car_type_4-2213892976426634662" minGap="2.50" maxSpeed="55.50" speedFactor="normc(0.76,0.10,0.20,2.00)" vClass="passenger" impatience="0.05" lcCooperative="0.1045418296930074" lcSpeedGain="1.1751466946348983" lcImpatience="0.24425615996512273" jmIgnoreFoeProb="0.2434413990265195" accel="2.6" decel="4.5" sigma="0.1857498027298866"/>
    <vehicle id="car_type_4-flow-route-edge-east-EW_0_random-edge-west-EW_0_max-8861631089998972976--7847324738201131855--2-3.0" type="actor-car_type_4-2213892976426634662" depart="0.00" departLane="0" departPos="random" departSpeed="max" arrivalLane="0" arrivalPos="max">
        <route edges="edge-east-EW edge-west-EW"/>
    </vehicle>
    <vehicle id="car_type_4-flow-route-edge-east-EW_1_random-edge-west-EW_1_max--6951023746137404042--7847324738201131855--3-3.0" type="actor-car_type_4-2213892976426634662" depart="0.00" departLane="1" departPos="random" departSpeed="max" arrivalLane="1" arrivalPos="max">
        <route edges="edge-east-EW edge-west-EW"/>
    </vehicle>
    <vehicle id="car_type_4-flow-route-edge-south-SN_0_random-edge-east-WE_0_random-3756341774266760014--7847324738201131855--4-3.0" type="actor-car_type_4-2213892976426634662" depart="0.00" departLane="0" departPos="random" departSpeed="max" arrivalLane="0" arrivalPos="random">
        <route edges="edge-south-SN edge-east-WE"/>
    </vehicle>
    <vehicle id="car_type_4-flow-route-edge-west-WE_0_random-edge-east-WE_0_random--7477408607216681839--7847324738201131855--0-3.0" type="actor-car_type_4-2213892976426634662" depart="0.00" departLane="0" departPos="random" departSpeed="max" arrivalLane="0" arrivalPos="random">
        <route edges="edge-west-WE edge-east-WE"/>
    </vehicle>
    <vehicle id="car_type_4-flow-route-edge-west-WE_1_random-edge-east-WE_1_random-1150677805683799947--7847324738201131855--1-3.0" type="actor-car_type_4-2213892976426634662" depart="0.00" departLane="1" departPos="random" departSpeed="max" arrivalLane="1" arrivalPos="random">
        <route edges="edge-west-WE edge-east-WE"/>
    </vehicle>
    <vehicle id="car_type_1-flow-route-edge-east-EW_0_random-edge-west-EW_0_max-8861631089998972976--7847324738201131855--2-0.1" type="actor-car_type_1--7834290501202751835" depart="144.00" departLane="0" departPos="random" departSpeed="max" arrivalLane="0" arrivalPos="max">
        <route edges="edge-east-EW edge-west-EW"/>
    </vehicle>
    <vehicle id="car_type_1-flow-route-edge-east-EW_1_random-edge-west-EW_1_max--6951023746137404042--7847324738201131855--3-0.1" type="actor-car_type_1--7834290501202751835" depart="144.00" departLane="1" departPos="random" departSpeed="max" arrivalLane="1" arrivalPos="max">
        <route edges="edge-east-EW edge-west-EW"/>
    </vehicle>
    <vehicle id="car_type_1-flow-route-edge-south-SN_0_random-edge-east-WE_0_random-3756341774266760014--7847324738201131855--4-0.1" type="actor-car_type_1--7834290501202751835" depart="144.00" departLane="0" departPos="random" departSpeed="max" arrivalLane="0" arrivalPos="random">
        <route edges="edge-south-SN edge-east-WE"/>
    </vehicle>
    <vehicle id="car_type_1-flow-route-edge-west-WE_0_random-edge-east-WE_0_random--7477408607216681839--7847324738201131855--0-0.1" type="actor-car_type_1--7834290501202751835" depart="144.00" departLane="0" departPos="random" departSpeed="max" arrivalLane="0" arrivalPos="random">
        <route edges="edge-west-WE edge-east-WE"/>
    </vehicle>
    <vehicle id="car_type_1-flow-route-edge-west-WE_1_random-edge-east-WE_1_random-1150677805683799947--7847324738201131855--1-0.1" type="actor-car_type_1--7834290501202751835" depart="144.00" departLane="1" departPos="random" departSpeed="max" arrivalLane="1" arrivalPos="random">
        <route edges="edge-west-WE edge-east-WE"/>
    </vehicle>
    <vehicle id="car_type_2-flow-route-edge-east-EW_0_random-edge-west-EW_0_max-8861631089998972976--7847324738201131855--2-1.1" type="actor-car_type_2-186537638956461525" depart="144.00" departLane="0" departPos="random" departSpeed="max" arrivalLane="0" arrivalPos="max">
        <route edges="edge-east-EW edge-west-EW"/>
    </vehicle>
    <vehicle id="car_type_2-flow-route-edge-east-EW_1_random-edge-west-EW_1_max--6951023746137404042--7847324738201131855--3-1.1" type="actor-car_type_2-186537638956461525" depart="144.00" departLane="1" departPos="random" departSpeed="max" arrivalLane="1" arrivalPos="max">
        <route edges="edge-east-EW edge-west-EW"/>
    </vehicle>
    <vehicle id="car_type_2-flow-route-edge-south-SN_0_random-edge-east-WE_0_random-3756341774266760014--7847324738201131855--4-1.1" type="actor-car_type_2-186537638956461525" depart="144.00" departLane="0" departPos="random" departSpeed="max" arrivalLane="0" arrivalPos="random">
        <route edges="edge-south-SN edge-east-WE"/>
    </vehicle>
    <vehicle id="car_type_2-flow-route-edge-west-WE_0_random-edge-east-WE_0_random--7477408607216681839--7847324738201131855--0-1.1" type="actor-car_type_2-186537638956461525" depart="144.00" departLane="0" departPos="random" departSpeed="max" arrivalLane="0" arrivalPos="random">
        <route edges="edge-west-WE edge-east-WE"/>
    </vehicle>
    <vehicle id="car_type_2-flow-route-edge-west-WE_1_random-edge-east-WE_1_random-1150677805683799947--7847324738201131855--1-1.1" type="actor-car_type_2-186537638956461525" depart="144.00" departLane="1" departPos="random" departSpeed="max" arrivalLane="1" arrivalPos="random">
        <route edges="edge-west-WE edge-east-WE"/>
    </vehicle>
    <vehicle id="car_type_3-flow-route-edge-east-EW_0_random-edge-west-EW_0_max-8861631089998972976--7847324738201131855--2-2.1" type="actor-car_type_3--6346163823277068256" depart="144.00" departLane="0" departPos="random" departSpeed="max" arrivalLane="0" arrivalPos="max">
        <route edges="edge-east-EW edge-west-EW"/>
    </vehicle>
    <vehicle id="car_type_3-flow-route-edge-east-EW_1_random-edge-west-EW_1_max--6951023746137404042--7847324738201131855--3-2.1" type="actor-car_type_3--6346163823277068256" depart="144.00" departLane="1" departPos="random" departSpeed="max" arrivalLane="1" arrivalPos="max">
        <route edges="edge-east-EW edge-west-EW"/>
    </vehicle>
    <vehicle id="car_type_3-flow-route-edge-south-SN_0_random-edge-east-WE_0_random-3756341774266760014--7847324738201131855--4-2.1" type="actor-car_type_3--6346163823277068256" depart="144.00" departLane="0" departPos="random" departSpeed="max" arrivalLane="0" arrivalPos="random">
        <route edges="edge-south-SN edge-east-WE"/>
    </vehicle>
    <vehicle id="car_type_3-flow-route-edge-west-WE_0_random-edge-east-WE_0_random--7477408607216681839--7847324738201131855--0-2.1" type="actor-car_type_3--6346163823277068256" depart="144.00" departLane="0" departPos="random" departSpeed="max" arrivalLane="0" arrivalPos="random">
        <route edges="edge-west-WE edge-east-WE"/>
    </vehicle>
    <vehicle id="car_type_3-flow-route-edge-west-WE_1_random-edge-east-WE_1_random-1150677805683799947--7847324738201131855--1-2.1" type="actor-car_type_3--6346163823277068256" depart="144.00" departLane="1" departPos="random" departSpeed="max" arrivalLane="1" arrivalPos="random">
        <route edges="edge-west-WE edge-east-WE"/>
    </vehicle>
    <vehicle id="car_type_4-flow-route-edge-east-EW_0_random-edge-west-EW_0_max-8861631089998972976--7847324738201131855--2-3.1" type="actor-car_type_4-2213892976426634662" depart="144.00" departLane="0" departPos="random" departSpeed="max" arrivalLane="0" arrivalPos="max">
        <route edges="edge-east-EW edge-west-EW"/>
    </vehicle>
    <vehicle id="car_type_4-flow-route-edge-east-EW_1_random-edge-west-EW_1_max--6951023746137404042--7847324738201131855--3-3.1" type="actor-car_type_4-2213892976426634662" depart="144.00" departLane="1" departPos="random" departSpeed="max" arrivalLane="1" arrivalPos="max">
        <route edges="edge-east-EW edge-west-EW"/>
    </vehicle>
    <vehicle id="car_type_4-flow-route-edge-south-SN_0_random-edge-east-WE_0_random-3756341774266760014--7847324738201131855--4-3.1" type="actor-car_type_4-2213892976426634662" depart="144.00" departLane="0" departPos="random" departSpeed="max" arrivalLane="0" arrivalPos="random">
        <route edges="edge-south-SN edge-east-WE"/>
    </vehicle>
    <vehicle id="car_type_4-flow-route-edge-west-WE_0_random-edge-east-WE_0_random--7477408607216681839--7847324738201131855--0-3.1" type="actor-car_type_4-2213892976426634662" depart="144.00" departLane="0" departPos="random" departSpeed="max" arrivalLane="0" arrivalPos="random">
        <route edges="edge-west-WE edge-east-WE"/>
    </vehicle>
    <vehicle id="car_type_4-flow-route-edge-west-WE_1_random-edge-east-WE_1_random-1150677805683799947--7847324738201131855--1-3.1" type="actor-car_type_4-2213892976426634662" depart="144.00" departLane="1" departPos="random" departSpeed="max" arrivalLane="1" arrivalPos="random">
        <route edges="edge-west-WE edge-east-WE"/>
    </vehicle>
    <vehicle id="car_type_1-flow-route-edge-east-EW_0_random-edge-west-EW_0_max-8861631089998972976--7847324738201131855--2-0.2" type="actor-car_type_1--7834290501202751835" depart="288.00" departLane="0" departPos="random" departSpeed="max" arrivalLane="0" arrivalPos="max">
        <route edges="edge-east-EW edge-west-EW"/>
    </vehicle>
    <vehicle id="car_type_1-flow-route-edge-east-EW_1_random-edge-west-EW_1_max--6951023746137404042--7847324738201131855--3-0.2" type="actor-car_type_1--7834290501202751835" depart="288.00" departLane="1" departPos="random" departSpeed="max" arrivalLane="1" arrivalPos="max">
        <route edges="edge-east-EW edge-west-EW"/>
    </vehicle>
    <vehicle id="car_type_1-flow-route-edge-south-SN_0_random-edge-east-WE_0_random-3756341774266760014--7847324738201131855--4-0.2" type="actor-car_type_1--7834290501202751835" depart="288.00" departLane="0" departPos="random" departSpeed="max" arrivalLane="0" arrivalPos="random">
        <route edges="edge-south-SN edge-east-WE"/>
    </vehicle>
    <vehicle id="car_type_1-flow-route-edge-west-WE_0_random-edge-east-WE_0_random--7477408607216681839--7847324738201131855--0-0.2" type="actor-car_type_1--7834290501202751835" depart="288.00" departLane="0" departPos="random" departSpeed="max" arrivalLane="0" arrivalPos="random">
        <route edges="edge-west-WE edge-east-WE"/>
    </vehicle>
    <vehicle id="car_type_1-flow-route-edge-west-WE_1_random-edge-east-WE_1_random-1150677805683799947--7847324738201131855--1-0.2" type="actor-car_type_1--7834290501202751835" depart="288.00" departLane="1" departPos="random" departSpeed="max" arrivalLane="1" arrivalPos="random">
        <route edges="edge-west-WE edge-east-WE"/>
    </vehicle>
    <vehicle id="car_type_2-flow-route-edge-east-EW_0_random-edge-west-EW_0_max-8861631089998972976--7847324738201131855--2-1.2" type="actor-car_type_2-186537638956461525" depart="288.00" departLane="0" departPos="random" departSpeed="max" arrivalLane="0" arrivalPos="max">
        <route edges="edge-east-EW edge-west-EW"/>
    </vehicle>
    <vehicle id="car_type_2-flow-route-edge-east-EW_1_random-edge-west-EW_1_max--6951023746137404042--7847324738201131855--3-1.2" type="actor-car_type_2-186537638956461525" depart="288.00" departLane="1" departPos="random" departSpeed="max" arrivalLane="1" arrivalPos="max">
        <route edges="edge-east-EW edge-west-EW"/>
    </vehicle>
    <vehicle id="car_type_2-flow-route-edge-south-SN_0_random-edge-east-WE_0_random-3756341774266760014--7847324738201131855--4-1.2" type="actor-car_type_2-186537638956461525" depart="288.00" departLane="0" departPos="random" departSpeed="max" arrivalLane="0" arrivalPos="random">
        <route edges="edge-south-SN edge-east-WE"/>
    </vehicle>
    <vehicle id="car_type_2-flow-route-edge-west-WE_0_random-edge-east-WE_0_random--7477408607216681839--7847324738201131855--0-1.2" type="actor-car_type_2-186537638956461525" depart="288.00" departLane="0" departPos="random" departSpeed="max" arrivalLane="0" arrivalPos="random">
        <route edges="edge-west-WE edge-east-WE"/>
    </vehicle>
    <vehicle id="car_type_2-flow-route-edge-west-WE_1_random-edge-east-WE_1_random-1150677805683799947--7847324738201131855--1-1.2" type="actor-car_type_2-186537638956461525" depart="288.00" departLane="1" departPos="random" departSpeed="max" arrivalLane="1" arrivalPos="random">
        <route edges="edge-west-WE edge-east-WE"/>
    </vehicle>
    <vehicle id="car_type_3-flow-route-edge-east-EW_0_random-edge-west-EW_0_max-8861631089998972976--7847324738201131855--2-2.2" type="actor-car_type_3--6346163823277068256" depart="288.00" departLane="0" departPos="random" departSpeed="max" arrivalLane="0" arrivalPos="max">
        <route edges="edge-east-EW edge-west-EW"/>
    </vehicle>
    <vehicle id="car_type_3-flow-route-edge-east-EW_1_random-edge-west-EW_1_max--6951023746137404042--7847324738201131855--3-2.2" type="actor-car_type_3--6346163823277068256" depart="288.00" departLane="1" departPos="random" departSpeed="max" arrivalLane="1" arrivalPos="max">
        <route edges="edge-east-EW edge-west-EW"/>
    </vehicle>
    <vehicle id="car_type_3-flow-route-edge-south-SN_0_random-edge-east-WE_0_random-3756341774266760014--7847324738201131855--4-2.2" type="actor-car_type_3--6346163823277068256" depart="288.00" departLane="0" departPos="random" departSpeed="max" arrivalLane="0" arrivalPos="random">
        <route edges="edge-south-SN edge-east-WE"/>
    </vehicle>
    <vehicle id="car_type_3-flow-route-edge-west-WE_0_random-edge-east-WE_0_random--7477408607216681839--7847324738201131855--0-2.2" type="actor-car_type_3--6346163823277068256" depart="288.00" departLane="0" departPos="random" departSpeed="max" arrivalLane="0" arrivalPos="random">
        <route edges="edge-west-WE edge-east-WE"/>
    </vehicle>
    <vehicle id="car_type_3-flow-route-edge-west-WE_1_random-edge-east-WE_1_random-1150677805683799947--7847324738201131855--1-2.2" type="actor-car_type_3--6346163823277068256" depart="288.00" departLane="1" departPos="random" departSpeed="max" arrivalLane="1" arrivalPos="random">
        <route edges="edge-west-WE edge-east-WE"/>
    </vehicle>
    <vehicle id="car_type_4-flow-route-edge-east-EW_0_random-edge-west-EW_0_max-8861631089998972976--7847324738201131855--2-3.2" type="actor-car_type_4-2213892976426634662" depart="288.00" departLane="0" departPos="random" departSpeed="max" arrivalLane="0" arrivalPos="max">
        <route edges="edge-east-EW edge-west-EW"/>
    </vehicle>
    <vehicle id="car_type_4-flow-route-edge-east-EW_1_random-edge-west-EW_1_max--6951023746137404042--7847324738201131855--3-3.2" type="actor-car_type_4-2213892976426634662" depart="288.00" departLane="1" departPos="random" departSpeed="max" arrivalLane="1" arrivalPos="max">
        <route edges="edge-east-EW edge-west-EW"/>
    </vehicle>
    <vehicle id="car_type_4-flow-route-edge-south-SN_0_random-edge-east-WE_0_random-3756341774266760014--7847324738201131855--4-3.2" type="actor-car_type_4-2213892976426634662" depart="288.00" departLane="0" departPos="random" departSpeed="max" arrivalLane="0" arrivalPos="random">
        <route edges="edge-south-SN edge-east-WE"/>
    </vehicle>
    <vehicle id="car_type_4-flow-route-edge-west-WE_0_random-edge-east-WE_0_random--7477408607216681839--7847324738201131855--0-3.2" type="actor-car_type_4-2213892976426634662" depart="288.00" departLane="0" departPos="random" departSpeed="max" arrivalLane="0" arrivalPos="random">
        <route edges="edge-west-WE edge-east-WE"/>
    </vehicle>
    <vehicle id="car_type_4-flow-route-edge-west-WE_1_random-edge-east-WE_1_random-1150677805683799947--7847324738201131855--1-3.2" type="actor-car_type_4-2213892976426634662" depart="288.00" departLane="1" departPos="random" departSpeed="max" arrivalLane="1" arrivalPos="random">
        <route edges="edge-west-WE edge-east-WE"/>
    </vehicle>
    <vehicle id="car_type_1-flow-route-edge-east-EW_0_random-edge-west-EW_0_max-8861631089998972976--7847324738201131855--2-0.3" type="actor-car_type_1--7834290501202751835" depart="432.00" departLane="0" departPos="random" departSpeed="max" arrivalLane="0" arrivalPos="max">
        <route edges="edge-east-EW edge-west-EW"/>
    </vehicle>
    <vehicle id="car_type_1-flow-route-edge-east-EW_1_random-edge-west-EW_1_max--6951023746137404042--7847324738201131855--3-0.3" type="actor-car_type_1--7834290501202751835" depart="432.00" departLane="1" departPos="random" departSpeed="max" arrivalLane="1" arrivalPos="max">
        <route edges="edge-east-EW edge-west-EW"/>
    </vehicle>
    <vehicle id="car_type_1-flow-route-edge-south-SN_0_random-edge-east-WE_0_random-3756341774266760014--7847324738201131855--4-0.3" type="actor-car_type_1--7834290501202751835" depart="432.00" departLane="0" departPos="random" departSpeed="max" arrivalLane="0" arrivalPos="random">
        <route edges="edge-south-SN edge-east-WE"/>
    </vehicle>
    <vehicle id="car_type_1-flow-route-edge-west-WE_0_random-edge-east-WE_0_random--7477408607216681839--7847324738201131855--0-0.3" type="actor-car_type_1--7834290501202751835" depart="432.00" departLane="0" departPos="random" departSpeed="max" arrivalLane="0" arrivalPos="random">
        <route edges="edge-west-WE edge-east-WE"/>
    </vehicle>
    <vehicle id="car_type_1-flow-route-edge-west-WE_1_random-edge-east-WE_1_random-1150677805683799947--7847324738201131855--1-0.3" type="actor-car_type_1--7834290501202751835" depart="432.00" departLane="1" departPos="random" departSpeed="max" arrivalLane="1" arrivalPos="random">
        <route edges="edge-west-WE edge-east-WE"/>
    </vehicle>
    <vehicle id="car_type_2-flow-route-edge-east-EW_0_random-edge-west-EW_0_max-8861631089998972976--7847324738201131855--2-1.3" type="actor-car_type_2-186537638956461525" depart="432.00" departLane="0" departPos="random" departSpeed="max" arrivalLane="0" arrivalPos="max">
        <route edges="edge-east-EW edge-west-EW"/>
    </vehicle>
    <vehicle id="car_type_2-flow-route-edge-east-EW_1_random-edge-west-EW_1_max--6951023746137404042--7847324738201131855--3-1.3" type="actor-car_type_2-186537638956461525" depart="432.00" departLane="1" departPos="random" departSpeed="max" arrivalLane="1" arrivalPos="max">
        <route edges="edge-east-EW edge-west-EW"/>
    </vehicle>
    <vehicle id="car_type_2-flow-route-edge-south-SN_0_random-edge-east-WE_0_random-3756341774266760014--7847324738201131855--4-1.3" type="actor-car_type_2-186537638956461525" depart="432.00" departLane="0" departPos="random" departSpeed="max" arrivalLane="0" arrivalPos="random">
        <route edges="edge-south-SN edge-east-WE"/>
    </vehicle>
    <vehicle id="car_type_2-flow-route-edge-west-WE_0_random-edge-east-WE_0_random--7477408607216681839--7847324738201131855--0-1.3" type="actor-car_type_2-186537638956461525" depart="432.00" departLane="0" departPos="random" departSpeed="max" arrivalLane="0" arrivalPos="random">
        <route edges="edge-west-WE edge-east-WE"/>
    </vehicle>
    <vehicle id="car_type_2-flow-route-edge-west-WE_1_random-edge-east-WE_1_random-1150677805683799947--7847324738201131855--1-1.3" type="actor-car_type_2-186537638956461525" depart="432.00" departLane="1" departPos="random" departSpeed="max" arrivalLane="1" arrivalPos="random">
        <route edges="edge-west-WE edge-east-WE"/>
    </vehicle>
    <vehicle id="car_type_3-flow-route-edge-east-EW_0_random-edge-west-EW_0_max-8861631089998972976--7847324738201131855--2-2.3" type="actor-car_type_3--6346163823277068256" depart="432.00" departLane="0" departPos="random" departSpeed="max" arrivalLane="0" arrivalPos="max">
        <route edges="edge-east-EW edge-west-EW"/>
    </vehicle>
    <vehicle id="car_type_3-flow-route-edge-east-EW_1_random-edge-west-EW_1_max--6951023746137404042--7847324738201131855--3-2.3" type="actor-car_type_3--6346163823277068256" depart="432.00" departLane="1" departPos="random" departSpeed="max" arrivalLane="1" arrivalPos="max">
        <route edges="edge-east-EW edge-west-EW"/>
    </vehicle>
    <vehicle id="car_type_3-flow-route-edge-south-SN_0_random-edge-east-WE_0_random-3756341774266760014--7847324738201131855--4-2.3" type="actor-car_type_3--6346163823277068256" depart="432.00" departLane="0" departPos="random" departSpeed="max" arrivalLane="0" arrivalPos="random">
        <route edges="edge-south-SN edge-east-WE"/>
    </vehicle>
    <vehicle id="car_type_3-flow-route-edge-west-WE_0_random-edge-east-WE_0_random--7477408607216681839--7847324738201131855--0-2.3" type="actor-car_type_3--6346163823277068256" depart="432.00" departLane="0" departPos="random" departSpeed="max" arrivalLane="0" arrivalPos="random">
        <route edges="edge-west-WE edge-east-WE"/>
    </vehicle>
    <vehicle id="car_type_3-flow-route-edge-west-WE_1_random-edge-east-WE_1_random-1150677805683799947--7847324738201131855--1-2.3" type="actor-car_type_3--6346163823277068256" depart="432.00" departLane="1" departPos="random" departSpeed="max" arrivalLane="1" arrivalPos="random">
        <route edges="edge-west-WE edge-east-WE"/>
    </vehicle>
    <vehicle id="car_type_4-flow-route-edge-east-EW_0_random-edge-west-EW_0_max-8861631089998972976--7847324738201131855--2-3.3" type="actor-car_type_4-2213892976426634662" depart="432.00" departLane="0" departPos="random" departSpeed="max" arrivalLane="0" arrivalPos="max">
        <route edges="edge-east-EW edge-west-EW"/>
    </vehicle>
    <vehicle id="car_type_4-flow-route-edge-east-EW_1_random-edge-west-EW_1_max--6951023746137404042--7847324738201131855--3-3.3" type="actor-car_type_4-2213892976426634662" depart="432.00" departLane="1" departPos="random" departSpeed="max" arrivalLane="1" arrivalPos="max">
        <route edges="edge-east-EW edge-west-EW"/>
    </vehicle>
    <vehicle id="car_type_4-flow-route-edge-south-SN_0_random-edge-east-WE_0_random-3756341774266760014--7847324738201131855--4-3.3" type="actor-car_type_4-2213892976426634662" depart="432.00" departLane="0" departPos="random" departSpeed="max" arrivalLane="0" arrivalPos="random">
        <route edges="edge-south-SN edge-east-WE"/>
    </vehicle>
    <vehicle id="car_type_4-flow-route-edge-west-WE_0_random-edge-east-WE_0_random--7477408607216681839--7847324738201131855--0-3.3" type="actor-car_type_4-2213892976426634662" depart="432.00" departLane="0" departPos="random" departSpeed="max" arrivalLane="0" arrivalPos="random">
        <route edges="edge-west-WE edge-east-WE"/>
    </vehicle>