<?xml version="1.0" encoding="UTF-8"?>

<!-- generated on 2021-10-23 11:46:32 by Eclipse SUMO duarouter Version 1.10.0
<configuration xmlns:xsi="http://www.w3.org/2001/XMLSchema-instance" xsi:noNamespaceSchemaLocation="http://sumo.dlr.de/xsd/duarouterConfiguration.xsd">

    <input>
        <net-file value="/home/automan/Project3/NNLS_R1/scenarios/roundabout_test/map.net.xml"/>
        <route-files value="/tmp/tmpcdzuve1o/trips.trips.xml"/>
    </input>

    <output>
        <output-file value="/home/automan/Project3/NNLS_R1/scenarios/roundabout_test/traffic/traffic_695.rou.xml"/>
        <alternatives-output value="/home/automan/Project3/NNLS_R1/scenarios/roundabout_test/traffic/traffic_695.rou.alt.xml"/>
    </output>

    <processing>
        <unsorted-input value="true"/>
        <repair value="true"/>
    </processing>

    <report>
        <error-log value="/home/automan/.smarts/_duarouter_routing/traffic/traffic_695.log"/>
        <no-step-log value="true"/>
    </report>

    <random_number>
        <seed value="695"/>
    </random_number>

</configuration>
-->

<routes xmlns:xsi="http://www.w3.org/2001/XMLSchema-instance" xsi:noNamespaceSchemaLocation="http://sumo.dlr.de/xsd/routes_file.xsd">
    <vType id="actor-car_type_1-438457734353075316" minGap="2.21" maxSpeed="55.50" speedFactor="normc(0.84,0.10,0.20,2.00)" vClass="passenger" impatience="0.41" lcCooperative="0.7138809323944171" lcSpeedGain="1.6111977961510802" lcImpatience="0.5737945684581012" jmIgnoreFoeProb="0.28514954241057555" accel="2.6" decel="4.5" sigma="0.6230629602822165"/>
    <vehicle id="car_type_1-flow-route-edge-east-EN_1_random-edge-south-NS_0_random--7208710187886197689--64027325852917706--9-0.0" type="actor-car_type_1-438457734353075316" depart="0.00" departLane="1" departPos="random" departSpeed="max" arrivalLane="0" arrivalPos="random">
        <route edges="edge-east-EN edge-north-NW edge-west-WS edge-south-NS"/>
    </vehicle>
    <vehicle id="car_type_1-flow-route-edge-north-NS_0_random-edge-east-WE_0_random-1762057608705153101--64027325852917706--6-0.0" type="actor-car_type_1-438457734353075316" depart="0.00" departLane="0" departPos="random" departSpeed="max" arrivalLane="0" arrivalPos="random">
        <route edges="edge-north-NS edge-north-NW edge-west-WS edge-south-SE edge-east-WE"/>
    </vehicle>
    <vehicle id="car_type_1-flow-route-edge-north-NS_0_random-edge-south-NS_0_random-7182744788378599042--64027325852917706--7-0.0" type="actor-car_type_1-438457734353075316" depart="0.00" departLane="0" departPos="random" departSpeed="max" arrivalLane="0" arrivalPos="random">
        <route edges="edge-north-NS edge-north-NW edge-west-WS edge-south-NS"/>
    </vehicle>
    <vehicle id="car_type_1-flow-route-edge-north-NS_0_random-edge-west-EW_0_random--3964325484813977239--64027325852917706--8-0.0" type="actor-car_type_1-438457734353075316" depart="0.00" departLane="0" departPos="random" departSpeed="max" arrivalLane="0" arrivalPos="random">
        <route edges="edge-north-NS edge-north-NW edge-west-EW"/>
    </vehicle>
    <vehicle id="car_type_1-flow-route-edge-south-SN_0_random-edge-east-WE_0_random--2303355590823367471--64027325852917706--0-0.0" type="actor-car_type_1-438457734353075316" depart="0.00" departLane="0" departPos="random" departSpeed="max" arrivalLane="0" arrivalPos="random">
        <route edges="edge-south-SN edge-south-SE edge-east-WE"/>
    </vehicle>
    <vehicle id="car_type_1-flow-route-edge-south-SN_0_random-edge-north-SN_0_random--6226958181857325958--64027325852917706--2-0.0" type="actor-car_type_1-438457734353075316" depart="0.00" departLane="0" departPos="random" departSpeed="max" arrivalLane="0" arrivalPos="random">
        <route edges="edge-south-SN edge-south-SE edge-east-EN edge-north-SN"/>
    </vehicle>
    <vehicle id="car_type_1-flow-route-edge-south-SN_0_random-edge-west-EW_0_random-1333257972050861541--64027325852917706--1-0.0" type="actor-car_type_1-438457734353075316" depart="0.00" departLane="0" departPos="random" departSpeed="max" arrivalLane="0" arrivalPos="random">
        <route edges="edge-south-SN edge-south-SE edge-east-EN edge-north-NW edge-west-EW"/>
    </vehicle>
    <vehicle id="car_type_1-flow-route-edge-west-WE_0_random-edge-east-WE_0_random-4750823615573794969--64027325852917706--3-0.0" type="actor-car_type_1-438457734353075316" depart="0.00" departLane="0" departPos="random" departSpeed="max" arrivalLane="0" arrivalPos="random">
        <route edges="edge-west-WE edge-west-WS edge-south-SE edge-east-WE"/>
    </vehicle>
    <vehicle id="car_type_1-flow-route-edge-west-WE_0_random-edge-north-SN_0_random-954882014406267458--64027325852917706--5-0.0" type="actor-car_type_1-438457734353075316" depart="0.00" departLane="0" departPos="random" departSpeed="max" arrivalLane="0" arrivalPos="random">
        <route edges="edge-west-WE edge-west-WS edge-south-SE edge-east-EN edge-north-SN"/>
    </vehicle>
    <vehicle id="car_type_1-flow-route-edge-west-WE_0_random-edge-south-NS_0_random-5502061418828684286--64027325852917706--4-0.0" type="actor-car_type_1-438457734353075316" depart="0.00" departLane="0" departPos="random" departSpeed="max" arrivalLane="0" arrivalPos="random">
        <route edges="edge-west-WE edge-west-WS edge-south-NS"/>
    </vehicle>
    <vType id="actor-car_type_2--7208619184423880309" minGap="3.64" maxSpeed="55.50" speedFactor="normc(0.69,0.10,0.20,2.00)" vClass="passenger" impatience="0.68" lcCooperative="0.4099609423347911" lcSpeedGain="1.976322892418751" lcImpatience="0.7903885960633553" jmIgnoreFoeProb="0.8370920859625838" accel="2.6" decel="4.5" sigma="0.5369442793404328"/>
    <vehicle id="car_type_2-flow-route-edge-east-EN_1_random-edge-south-NS_0_random--7208710187886197689--64027325852917706--9-1.0" type="actor-car_type_2--7208619184423880309" depart="0.00" departLane="1" departPos="random" departSpeed="max" arrivalLane="0" arrivalPos="random">
        <route edges="edge-east-EN edge-north-NW edge-west-WS edge-south-NS"/>
    </vehicle>
    <vehicle id="car_type_2-flow-route-edge-north-NS_0_random-edge-east-WE_0_random-1762057608705153101--64027325852917706--6-1.0" type="actor-car_type_2--7208619184423880309" depart="0.00" departLane="0" departPos="random" departSpeed="max" arrivalLane="0" arrivalPos="random">
        <route edges="edge-north-NS edge-north-NW edge-west-WS edge-south-SE edge-east-WE"/>
    </vehicle>
    <vehicle id="car_type_2-flow-route-edge-north-NS_0_random-edge-south-NS_0_random-7182744788378599042--64027325852917706--7-1.0" type="actor-car_type_2--7208619184423880309" depart="0.00" departLane="0" departPos="random" departSpeed="max" arrivalLane="0" arrivalPos="random">
        <route edges="edge-north-NS edge-north-NW edge-west-WS edge-south-NS"/>
    </vehicle>
    <vehicle id="car_type_2-flow-route-edge-north-NS_0_random-edge-west-EW_0_random--3964325484813977239--64027325852917706--8-1.0" type="actor-car_type_2--7208619184423880309" depart="0.00" departLane="0" departPos="random" departSpeed="max" arrivalLane="0" arrivalPos="random">
        <route edges="edge-north-NS edge-north-NW edge-west-EW"/>
    </vehicle>
    <vehicle id="car_type_2-flow-route-edge-south-SN_0_random-edge-east-WE_0_random--2303355590823367471--64027325852917706--0-1.0" type="actor-car_type_2--7208619184423880309" depart="0.00" departLane="0" departPos="random" departSpeed="max" arrivalLane="0" arrivalPos="random">
        <route edges="edge-south-SN edge-south-SE edge-east-WE"/>
    </vehicle>
    <vehicle id="car_type_2-flow-route-edge-south-SN_0_random-edge-north-SN_0_random--6226958181857325958--64027325852917706--2-1.0" type="actor-car_type_2--7208619184423880309" depart="0.00" departLane="0" departPos="random" departSpeed="max" arrivalLane="0" arrivalPos="random">
        <route edges="edge-south-SN edge-south-SE edge-east-EN edge-north-SN"/>
    </vehicle>
    <vehicle id="car_type_2-flow-route-edge-south-SN_0_random-edge-west-EW_0_random-1333257972050861541--64027325852917706--1-1.0" type="actor-car_type_2--7208619184423880309" depart="0.00" departLane="0" departPos="random" departSpeed="max" arrivalLane="0" arrivalPos="random">
        <route edges="edge-south-SN edge-south-SE edge-east-EN edge-north-NW edge-west-EW"/>
    </vehicle>
    <vehicle id="car_type_2-flow-route-edge-west-WE_0_random-edge-east-WE_0_random-4750823615573794969--64027325852917706--3-1.0" type="actor-car_type_2--7208619184423880309" depart="0.00" departLane="0" departPos="random" departSpeed="max" arrivalLane="0" arrivalPos="random">
        <route edges="edge-west-WE edge-west-WS edge-south-SE edge-east-WE"/>
    </vehicle>
    <vehicle id="car_type_2-flow-route-edge-west-WE_0_random-edge-north-SN_0_random-954882014406267458--64027325852917706--5-1.0" type="actor-car_type_2--7208619184423880309" depart="0.00" departLane="0" departPos="random" departSpeed="max" arrivalLane="0" arrivalPos="random">
        <route edges="edge-west-WE edge-west-WS edge-south-SE edge-east-EN edge-north-SN"/>
    </vehicle>
    <vehicle id="car_type_2-flow-route-edge-west-WE_0_random-edge-south-NS_0_random-5502061418828684286--64027325852917706--4-1.0" type="actor-car_type_2--7208619184423880309" depart="0.00" departLane="0" departPos="random" departSpeed="max" arrivalLane="0" arrivalPos="random">
        <route edges="edge-west-WE edge-west-WS edge-south-NS"/>
    </vehicle>
    <vType id="actor-car_type_3-3405479444014038495" minGap="2.24" maxSpeed="55.50" speedFactor="normc(0.97,0.10,0.20,2.00)" vClass="passenger" impatience="0.75" lcCooperative="0.23664788733994646" lcSpeedGain="1.1689901363509516" lcImpatience="0.06619000186855517" jmIgnoreFoeProb="0.4211722268705572" accel="2.6" decel="4.5" sigma="0.30557709892226814"/>
    <vehicle id="car_type_3-flow-route-edge-east-EN_1_random-edge-south-NS_0_random--7208710187886197689--64027325852917706--9-2.0" type="actor-car_type_3-3405479444014038495" depart="0.00" departLane="1" departPos="random" departSpeed="max" arrivalLane="0" arrivalPos="random">
        <route edges="edge-east-EN edge-north-NW edge-west-WS edge-south-NS"/>
    </vehicle>
    <vehicle id="car_type_3-flow-route-edge-north-NS_0_random-edge-east-WE_0_random-1762057608705153101--64027325852917706--6-2.0" type="actor-car_type_3-3405479444014038495" depart="0.00" departLane="0" departPos="random" departSpeed="max" arrivalLane="0" arrivalPos="random">
        <route edges="edge-north-NS edge-north-NW edge-west-WS edge-south-SE edge-east-WE"/>
    </vehicle>
    <vehicle id="car_type_3-flow-route-edge-north-NS_0_random-edge-south-NS_0_random-7182744788378599042--64027325852917706--7-2.0" type="actor-car_type_3-3405479444014038495" depart="0.00" departLane="0" departPos="random" departSpeed="max" arrivalLane="0" arrivalPos="random">
        <route edges="edge-north-NS edge-north-NW edge-west-WS edge-south-NS"/>
    </vehicle>
    <vehicle id="car_type_3-flow-route-edge-north-NS_0_random-edge-west-EW_0_random--3964325484813977239--64027325852917706--8-2.0" type="actor-car_type_3-3405479444014038495" depart="0.00" departLane="0" departPos="random" departSpeed="max" arrivalLane="0" arrivalPos="random">
        <route edges="edge-north-NS edge-north-NW edge-west-EW"/>
    </vehicle>
    <vehicle id="car_type_3-flow-route-edge-south-SN_0_random-edge-east-WE_0_random--2303355590823367471--64027325852917706--0-2.0" type="actor-car_type_3-3405479444014038495" depart="0.00" departLane="0" departPos="random" departSpeed="max" arrivalLane="0" arrivalPos="random">
        <route edges="edge-south-SN edge-south-SE edge-east-WE"/>
    </vehicle>
    <vehicle id="car_type_3-flow-route-edge-south-SN_0_random-edge-north-SN_0_random--6226958181857325958--64027325852917706--2-2.0" type="actor-car_type_3-3405479444014038495" depart="0.00" departLane="0" departPos="random" departSpeed="max" arrivalLane="0" arrivalPos="random">
        <route edges="edge-south-SN edge-south-SE edge-east-EN edge-north-SN"/>
    </vehicle>
    <vehicle id="car_type_3-flow-route-edge-south-SN_0_random-edge-west-EW_0_random-1333257972050861541--64027325852917706--1-2.0" type="actor-car_type_3-3405479444014038495" depart="0.00" departLane="0" departPos="random" departSpeed="max" arrivalLane="0" arrivalPos="random">
        <route edges="edge-south-SN edge-south-SE edge-east-EN edge-north-NW edge-west-EW"/>
    </vehicle>
    <vehicle id="car_type_3-flow-route-edge-west-WE_0_random-edge-east-WE_0_random-4750823615573794969--64027325852917706--3-2.0" type="actor-car_type_3-3405479444014038495" depart="0.00" departLane="0" departPos="random" departSpeed="max" arrivalLane="0" arrivalPos="random">
        <route edges="edge-west-WE edge-west-WS edge-south-SE edge-east-WE"/>
    </vehicle>
    <vehicle id="car_type_3-flow-route-edge-west-WE_0_random-edge-north-SN_0_random-954882014406267458--64027325852917706--5-2.0" type="actor-car_type_3-3405479444014038495" depart="0.00" departLane="0" departPos="random" departSpeed="max" arrivalLane="0" arrivalPos="random">
        <route edges="edge-west-WE edge-west-WS edge-south-SE edge-east-EN edge-north-SN"/>
    </vehicle>
    <vehicle id="car_type_3-flow-route-edge-west-WE_0_random-edge-south-NS_0_random-5502061418828684286--64027325852917706--4-2.0" type="actor-car_type_3-3405479444014038495" depart="0.00" departLane="0" departPos="random" departSpeed="max" arrivalLane="0" arrivalPos="random">
        <route edges="edge-west-WE edge-west-WS edge-south-NS"/>
    </vehicle>
    <vType id="actor-car_type_4-2217590515125911194" minGap="3.06" maxSpeed="55.50" speedFactor="normc(0.71,0.10,0.20,2.00)" vClass="passenger" impatience="0.11" lcCooperative="0.23169460308528467" lcSpeedGain="1.084574914080945" lcImpatience="0.2693149867806063" jmIgnoreFoeProb="0.008739397510285518" accel="2.6" decel="4.5" sigma="0.496113430498239"/>
    <vehicle id="car_type_4-flow-route-edge-east-EN_1_random-edge-south-NS_0_random--7208710187886197689--64027325852917706--9-3.0" type="actor-car_type_4-2217590515125911194" depart="0.00" departLane="1" departPos="random" departSpeed="max" arrivalLane="0" arrivalPos="random">
        <route edges="edge-east-EN edge-north-NW edge-west-WS edge-south-NS"/>
    </vehicle>
    <vehicle id="car_type_4-flow-route-edge-north-NS_0_random-edge-east-WE_0_random-1762057608705153101--64027325852917706--6-3.0" type="actor-car_type_4-2217590515125911194" depart="0.00" departLane="0" departPos="random" departSpeed="max" arrivalLane="0" arrivalPos="random">
        <route edges="edge-north-NS edge-north-NW edge-west-WS edge-south-SE edge-east-WE"/>
    </vehicle>
    <vehicle id="car_type_4-flow-route-edge-north-NS_0_random-edge-south-NS_0_random-7182744788378599042--64027325852917706--7-3.0" type="actor-car_type_4-2217590515125911194" depart="0.00" departLane="0" departPos="random" departSpeed="max" arrivalLane="0" arrivalPos="random">
        <route edges="edge-north-NS edge-north-NW edge-west-WS edge-south-NS"/>
    </vehicle>
    <vehicle id="car_type_4-flow-route-edge-north-NS_0_random-edge-west-EW_0_random--3964325484813977239--64027325852917706--8-3.0" type="actor-car_type_4-2217590515125911194" depart="0.00" departLane="0" departPos="random" departSpeed="max" arrivalLane="0" arrivalPos="random">
        <route edges="edge-north-NS edge-north-NW edge-west-EW"/>
    </vehicle>
    <vehicle id="car_type_4-flow-route-edge-south-SN_0_random-edge-east-WE_0_random--2303355590823367471--64027325852917706--0-3.0" type="actor-car_type_4-2217590515125911194" depart="0.00" departLane="0" departPos="random" departSpeed="max" arrivalLane="0" arrivalPos="random">
        <route edges="edge-south-SN edge-south-SE edge-east-WE"/>
    </vehicle>
    <vehicle id="car_type_4-flow-route-edge-south-SN_0_random-edge-north-SN_0_random--6226958181857325958--64027325852917706--2-3.0" type="actor-car_type_4-2217590515125911194" depart="0.00" departLane="0" departPos="random" departSpeed="max" arrivalLane="0" arrivalPos="random">
        <route edges="edge-south-SN edge-south-SE edge-east-EN edge-north-SN"/>
    </vehicle>
    <vehicle id="car_type_4-flow-route-edge-south-SN_0_random-edge-west-EW_0_random-1333257972050861541--64027325852917706--1-3.0" type="actor-car_type_4-2217590515125911194" depart="0.00" departLane="0" departPos="random" departSpeed="max" arrivalLane="0" arrivalPos="random">
        <route edges="edge-south-SN edge-south-SE edge-east-EN edge-north-NW edge-west-EW"/>
    </vehicle>
    <vehicle id="car_type_4-flow-route-edge-west-WE_0_random-edge-east-WE_0_random-4750823615573794969--64027325852917706--3-3.0" type="actor-car_type_4-2217590515125911194" depart="0.00" departLane="0" departPos="random" departSpeed="max" arrivalLane="0" arrivalPos="random">
        <route edges="edge-west-WE edge-west-WS edge-south-SE edge-east-WE"/>
    </vehicle>
    <vehicle id="car_type_4-flow-route-edge-west-WE_0_random-edge-north-SN_0_random-954882014406267458--64027325852917706--5-3.0" type="actor-car_type_4-2217590515125911194" depart="0.00" departLane="0" departPos="random" departSpeed="max" arrivalLane="0" arrivalPos="random">
        <route edges="edge-west-WE edge-west-WS edge-south-SE edge-east-EN edge-north-SN"/>
    </vehicle>
    <vehicle id="car_type_4-flow-route-edge-west-WE_0_random-edge-south-NS_0_random-5502061418828684286--64027325852917706--4-3.0" type="actor-car_type_4-2217590515125911194" depart="0.00" departLane="0" departPos="random" departSpeed="max" arrivalLane="0" arrivalPos="random">
        <route edges="edge-west-WE edge-west-WS edge-south-NS"/>
    </vehicle>
    <vType id="actor-car_type_5-7468920741469739857" minGap="2.04" maxSpeed="55.50" speedFactor="normc(0.68,0.10,0.20,2.00)" vClass="passenger" impatience="0.31" lcCooperative="0.20405227339820176" lcSpeedGain="1.9906415830520081" lcImpatience="0.4921358750556639" jmIgnoreFoeProb="0.37676832183915254" accel="2.6" decel="4.5" sigma="0.25275215328477585"/>
    <vehicle id="car_type_5-flow-route-edge-east-EN_1_random-edge-south-NS_0_random--7208710187886197689--64027325852917706--9-4.0" type="actor-car_type_5-7468920741469739857" depart="0.00" departLane="1" departPos="random" departSpeed="max" arrivalLane="0" arrivalPos="random">
        <route edges="edge-east-EN edge-north-NW edge-west-WS edge-south-NS"/>
    </vehicle>
    <vehicle id="car_type_5-flow-route-edge-north-NS_0_random-edge-east-WE_0_random-1762057608705153101--64027325852917706--6-4.0" type="actor-car_type_5-7468920741469739857" depart="0.00" departLane="0" departPos="random" departSpeed="max" arrivalLane="0" arrivalPos="random">
        <route edges="edge-north-NS edge-north-NW edge-west-WS edge-south-SE edge-east-WE"/>
    </vehicle>
    <vehicle id="car_type_5-flow-route-edge-north-NS_0_random-edge-south-NS_0_random-7182744788378599042--64027325852917706--7-4.0" type="actor-car_type_5-7468920741469739857" depart="0.00" departLane="0" departPos="random" departSpeed="max" arrivalLane="0" arrivalPos="random">
        <route edges="edge-north-NS edge-north-NW edge-west-WS edge-south-NS"/>
    </vehicle>
    <vehicle id="car_type_5-flow-route-edge-north-NS_0_random-edge-west-EW_0_random--3964325484813977239--64027325852917706--8-4.0" type="actor-car_type_5-7468920741469739857" depart="0.00" departLane="0" departPos="random" departSpeed="max" arrivalLane="0" arrivalPos="random">
        <route edges="edge-north-NS edge-north-NW edge-west-EW"/>
    </vehicle>
    <vehicle id="car_type_5-flow-route-edge-south-SN_0_random-edge-east-WE_0_random--2303355590823367471--64027325852917706--0-4.0" type="actor-car_type_5-7468920741469739857" depart="0.00" departLane="0" departPos="random" departSpeed="max" arrivalLane="0" arrivalPos="random">
        <route edges="edge-south-SN edge-south-SE edge-east-WE"/>
    </vehicle>
    <vehicle id="car_type_5-flow-route-edge-south-SN_0_random-edge-north-SN_0_random--6226958181857325958--64027325852917706--2-4.0" type="actor-car_type_5-7468920741469739857" depart="0.00" departLane="0" departPos="random" departSpeed="max" arrivalLane="0" arrivalPos="random">
        <route edges="edge-south-SN edge-south-SE edge-east-EN edge-north-SN"/>
    </vehicle>
    <vehicle id="car_type_5-flow-route-edge-south-SN_0_random-edge-west-EW_0_random-1333257972050861541--64027325852917706--1-4.0" type="actor-car_type_5-7468920741469739857" depart="0.00" departLane="0" departPos="random" departSpeed="max" arrivalLane="0" arrivalPos="random">
        <route edges="edge-south-SN edge-south-SE edge-east-EN edge-north-NW edge-west-EW"/>
    </vehicle>
    <vehicle id="car_type_5-flow-route-edge-west-WE_0_random-edge-east-WE_0_random-4750823615573794969--64027325852917706--3-4.0" type="actor-car_type_5-7468920741469739857" depart="0.00" departLane="0" departPos="random" departSpeed="max" arrivalLane="0" arrivalPos="random">
        <route edges="edge-west-WE edge-west-WS edge-south-SE edge-east-WE"/>
    </vehicle>
    <vehicle id="car_type_5-flow-route-edge-west-WE_0_random-edge-north-SN_0_random-954882014406267458--64027325852917706--5-4.0" type="actor-car_type_5-7468920741469739857" depart="0.00" departLane="0" departPos="random" departSpeed="max" arrivalLane="0" arrivalPos="random">
        <route edges="edge-west-WE edge-west-WS edge-south-SE edge-east-EN edge-north-SN"/>
    </vehicle>
    <vehicle id="car_type_5-flow-route-edge-west-WE_0_random-edge-south-NS_0_random-5502061418828684286--64027325852917706--4-4.0" type="actor-car_type_5-7468920741469739857" depart="0.00" departLane="0" departPos="random" departSpeed="max" arrivalLane="0" arrivalPos="random">
        <route edges="edge-west-WE edge-west-WS edge-south-NS"/>
    </vehicle>
    <vType id="actor-car_type_6--5458560727888575402" minGap="2.66" maxSpeed="55.50" speedFactor="normc(0.66,0.10,0.20,2.00)" vClass="passenger" impatience="0.93" lcCooperative="0.42541272791799123" lcSpeedGain="1.6905773053071438" lcImpatience="0.9497965046856702" jmIgnoreFoeProb="0.020908901072410613" accel="2.6" decel="4.5" sigma="0.5442390154779633"/>
    <vehicle id="car_type_6-flow-route-edge-east-EN_1_random-edge-south-NS_0_random--7208710187886197689--64027325852917706--9-5.0" type="actor-car_type_6--5458560727888575402" depart="0.00" departLane="1" departPos="random" departSpeed="max" arrivalLane="0" arrivalPos="random">
        <route edges="edge-east-EN edge-north-NW edge-west-WS edge-south-NS"/>
    </vehicle>
    <vehicle id="car_type_6-flow-route-edge-north-NS_0_random-edge-east-WE_0_random-1762057608705153101--64027325852917706--6-5.0" type="actor-car_type_6--5458560727888575402" depart="0.00" departLane="0" departPos="random" departSpeed="max" arrivalLane="0" arrivalPos="random">
        <route edges="edge-north-NS edge-north-NW edge-west-WS edge-south-SE edge-east-WE"/>
    </vehicle>
    <vehicle id="car_type_6-flow-route-edge-north-NS_0_random-edge-south-NS_0_random-7182744788378599042--64027325852917706--7-5.0" type="actor-car_type_6--5458560727888575402" depart="0.00" departLane="0" departPos="random" departSpeed="max" arrivalLane="0" arrivalPos="random">
        <route edges="edge-north-NS edge-north-NW edge-west-WS edge-south-NS"/>
    </vehicle>
    <vehicle id="car_type_6-flow-route-edge-north-NS_0_random-edge-west-EW_0_random--3964325484813977239--64027325852917706--8-5.0" type="actor-car_type_6--5458560727888575402" depart="0.00" departLane="0" departPos="random" departSpeed="max" arrivalLane="0" arrivalPos="random">
        <route edges="edge-north-NS edge-north-NW edge-west-EW"/>
    </vehicle>
    <vehicle id="car_type_6-flow-route-edge-south-SN_0_random-edge-east-WE_0_random--2303355590823367471--64027325852917706--0-5.0" type="actor-car_type_6--5458560727888575402" depart="0.00" departLane="0" departPos="random" departSpeed="max" arrivalLane="0" arrivalPos="random">
        <route edges="edge-south-SN edge-south-SE edge-east-WE"/>
    </vehicle>
    <vehicle id="car_type_6-flow-route-edge-south-SN_0_random-edge-north-SN_0_random--6226958181857325958--64027325852917706--2-5.0" type="actor-car_type_6--5458560727888575402" depart="0.00" departLane="0" departPos="random" departSpeed="max" arrivalLane="0" arrivalPos="random">
        <route edges="edge-south-SN edge-south-SE edge-east-EN edge-north-SN"/>
    </vehicle>
    <vehicle id="car_type_6-flow-route-edge-south-SN_0_random-edge-west-EW_0_random-1333257972050861541--64027325852917706--1-5.0" type="actor-car_type_6--5458560727888575402" depart="0.00" departLane="0" departPos="random" departSpeed="max" arrivalLane="0" arrivalPos="random">
        <route edges="edge-south-SN edge-south-SE edge-east-EN edge-north-NW edge-west-EW"/>
    </vehicle>
    <vehicle id="car_type_6-flow-route-edge-west-WE_0_random-edge-east-WE_0_random-4750823615573794969--64027325852917706--3-5.0" type="actor-car_type_6--5458560727888575402" depart="0.00" departLane="0" departPos="random" departSpeed="max" arrivalLane="0" arrivalPos="random">
        <route edges="edge-west-WE edge-west-WS edge-south-SE edge-east-WE"/>
    </vehicle>
    <vehicle id="car_type_6-flow-route-edge-west-WE_0_random-edge-north-SN_0_random-954882014406267458--64027325852917706--5-5.0" type="actor-car_type_6--5458560727888575402" depart="0.00" departLane="0" departPos="random" departSpeed="max" arrivalLane="0" arrivalPos="random">
        <route edges="edge-west-WE edge-west-WS edge-south-SE edge-east-EN edge-north-SN"/>
    </vehicle>
    <vehicle id="car_type_6-flow-route-edge-west-WE_0_random-edge-south-NS_0_random-5502061418828684286--64027325852917706--4-5.0" type="actor-car_type_6--5458560727888575402" depart="0.00" departLane="0" departPos="random" departSpeed="max" arrivalLane="0" arrivalPos="random">
        <route edges="edge-west-WE edge-west-WS edge-south-NS"/>
    </vehicle>
    <vehicle id="car_type_1-flow-route-edge-east-EN_1_random-edge-south-NS_0_random--7208710187886197689--64027325852917706--9-0.1" type="actor-car_type_1-438457734353075316" depart="216.00" departLane="1" departPos="random" departSpeed="max" arrivalLane="0" arrivalPos="random">
        <route edges="edge-east-EN edge-north-NW edge-west-WS edge-south-NS"/>
    </vehicle>
    <vehicle id="car_type_1-flow-route-edge-north-NS_0_random-edge-east-WE_0_random-1762057608705153101--64027325852917706--6-0.1" type="actor-car_type_1-438457734353075316" depart="216.00" departLane="0" departPos="random" departSpeed="max" arrivalLane="0" arrivalPos="random">
        <route edges="edge-north-NS edge-north-NW edge-west-WS edge-south-SE edge-east-WE"/>
    </vehicle>
    <vehicle id="car_type_1-flow-route-edge-north-NS_0_random-edge-south-NS_0_random-7182744788378599042--64027325852917706--7-0.1" type="actor-car_type_1-438457734353075316" depart="216.00" departLane="0" departPos="random" departSpeed="max" arrivalLane="0" arrivalPos="random">
        <route edges="edge-north-NS edge-north-NW edge-west-WS edge-south-NS"/>
    </vehicle>
    <vehicle id="car_type_1-flow-route-edge-north-NS_0_random-edge-west-EW_0_random--3964325484813977239--64027325852917706--8-0.1" type="actor-car_type_1-438457734353075316" depart="216.00" departLane="0" departPos="random" departSpeed="max" arrivalLane="0" arrivalPos="random">
        <route edges="edge-north-NS edge-north-NW edge-west-EW"/>
    </vehicle>
    <vehicle id="car_type_1-flow-route-edge-south-SN_0_random-edge-east-WE_0_random--2303355590823367471--64027325852917706--0-0.1" type="actor-car_type_1-438457734353075316" depart="216.00" departLane="0" departPos="random" departSpeed="max" arrivalLane="0" arrivalPos="random">
        <route edges="edge-south-SN edge-south-SE edge-east-WE"/>
    </vehicle>
    <vehicle id="car_type_1-flow-route-edge-south-SN_0_random-edge-north-SN_0_random--6226958181857325958--64027325852917706--2-0.1" type="actor-car_type_1-438457734353075316" depart="216.00" departLane="0" departPos="random" departSpeed="max" arrivalLane="0" arrivalPos="random">
        <route edges="edge-south-SN edge-south-SE edge-east-EN edge-north-SN"/>
    </vehicle>
    <vehicle id="car_type_1-flow-route-edge-south-SN_0_random-edge-west-EW_0_random-1333257972050861541--64027325852917706--1-0.1" type="actor-car_type_1-438457734353075316" depart="216.00" departLane="0" departPos="random" departSpeed="max" arrivalLane="0" arrivalPos="random">
        <route edges="edge-south-SN edge-south-SE edge-east-EN edge-north-NW edge-west-EW"/>
    </vehicle>
    <vehicle id="car_type_1-flow-route-edge-west-WE_0_random-edge-east-WE_0_random-4750823615573794969--64027325852917706--3-0.1" type="actor-car_type_1-438457734353075316" depart="216.00" departLane="0" departPos="random" departSpeed="max" arrivalLane="0" arrivalPos="random">
        <route edges="edge-west-WE edge-west-WS edge-south-SE edge-east-WE"/>
    </vehicle>
    <vehicle id="car_type_1-flow-route-edge-west-WE_0_random-edge-north-SN_0_random-954882014406267458--64027325852917706--5-0.1" type="actor-car_type_1-438457734353075316" depart="216.00" departLane="0" departPos="random" departSpeed="max" arrivalLane="0" arrivalPos="random">
        <route edges="edge-west-WE edge-west-WS edge-south-SE edge-east-EN edge-north-SN"/>
    </vehicle>
    <vehicle id="car_type_1-flow-route-edge-west-WE_0_random-edge-south-NS_0_random-5502061418828684286--64027325852917706--4-0.1" type="actor-car_type_1-438457734353075316" depart="216.00" departLane="0" departPos="random" departSpeed="max" arrivalLane="0" arrivalPos="random">
        <route edges="edge-west-WE edge-west-WS edge-south-NS"/>
    </vehicle>
    <vehicle id="car_type_2-flow-route-edge-east-EN_1_random-edge-south-NS_0_random--7208710187886197689--64027325852917706--9-1.1" type="actor-car_type_2--7208619184423880309" depart="216.00" departLane="1" departPos="random" departSpeed="max" arrivalLane="0" arrivalPos="random">
        <route edges="edge-east-EN edge-north-NW edge-west-WS edge-south-NS"/>
    </vehicle>