<?xml version="1.0" encoding="UTF-8"?>

<!-- generated on 2021-10-23 11:46:29 by Eclipse SUMO duarouter Version 1.10.0
<configuration xmlns:xsi="http://www.w3.org/2001/XMLSchema-instance" xsi:noNamespaceSchemaLocation="http://sumo.dlr.de/xsd/duarouterConfiguration.xsd">

    <input>
        <net-file value="/home/automan/Project3/NNLS_R1/scenarios/roundabout_test/map.net.xml"/>
        <route-files value="/tmp/tmp3kimonfn/trips.trips.xml"/>
    </input>

    <output>
        <output-file value="/home/automan/Project3/NNLS_R1/scenarios/roundabout_test/traffic/traffic_852.rou.xml"/>
        <alternatives-output value="/home/automan/Project3/NNLS_R1/scenarios/roundabout_test/traffic/traffic_852.rou.alt.xml"/>
    </output>

    <processing>
        <unsorted-input value="true"/>
        <repair value="true"/>
    </processing>

    <report>
        <error-log value="/home/automan/.smarts/_duarouter_routing/traffic/traffic_852.log"/>
        <no-step-log value="true"/>
    </report>

    <random_number>
        <seed value="852"/>
    </random_number>

</configuration>
-->

<routes xmlns:xsi="http://www.w3.org/2001/XMLSchema-instance" xsi:noNamespaceSchemaLocation="http://sumo.dlr.de/xsd/routes_file.xsd">
    <vType id="actor-car_type_1-3374602296423734617" minGap="3.78" maxSpeed="55.50" speedFactor="normc(0.73,0.10,0.20,2.00)" vClass="passenger" impatience="0.31" lcCooperative="0.280432036231284" lcSpeedGain="1.7788682091655312" lcImpatience="0.8914264587990484" jmIgnoreFoeProb="0.13471426236874895" accel="2.6" decel="4.5" sigma="0.33790976542532236"/>
    <vehicle id="car_type_1-flow-route-edge-east-EN_1_random-edge-south-NS_0_random--7208710187886197689--5089521481869815761--9-0.0" type="actor-car_type_1-3374602296423734617" depart="0.00" departLane="1" departPos="random" departSpeed="max" arrivalLane="0" arrivalPos="random">
        <route edges="edge-east-EN edge-north-NW edge-west-WS edge-south-NS"/>
    </vehicle>
    <vehicle id="car_type_1-flow-route-edge-north-NS_0_random-edge-east-WE_0_random-1762057608705153101--5089521481869815761--6-0.0" type="actor-car_type_1-3374602296423734617" depart="0.00" departLane="0" departPos="random" departSpeed="max" arrivalLane="0" arrivalPos="random">
        <route edges="edge-north-NS edge-north-NW edge-west-WS edge-south-SE edge-east-WE"/>
    </vehicle>
    <vehicle id="car_type_1-flow-route-edge-north-NS_0_random-edge-south-NS_0_random-7182744788378599042--5089521481869815761--7-0.0" type="actor-car_type_1-3374602296423734617" depart="0.00" departLane="0" departPos="random" departSpeed="max" arrivalLane="0" arrivalPos="random">
        <route edges="edge-north-NS edge-north-NW edge-west-WS edge-south-NS"/>
    </vehicle>
    <vehicle id="car_type_1-flow-route-edge-north-NS_0_random-edge-west-EW_0_random--3964325484813977239--5089521481869815761--8-0.0" type="actor-car_type_1-3374602296423734617" depart="0.00" departLane="0" departPos="random" departSpeed="max" arrivalLane="0" arrivalPos="random">
        <route edges="edge-north-NS edge-north-NW edge-west-EW"/>
    </vehicle>
    <vehicle id="car_type_1-flow-route-edge-south-SN_0_random-edge-east-WE_0_random--2303355590823367471--5089521481869815761--0-0.0" type="actor-car_type_1-3374602296423734617" depart="0.00" departLane="0" departPos="random" departSpeed="max" arrivalLane="0" arrivalPos="random">
        <route edges="edge-south-SN edge-south-SE edge-east-WE"/>
    </vehicle>
    <vehicle id="car_type_1-flow-route-edge-south-SN_0_random-edge-north-SN_0_random--6226958181857325958--5089521481869815761--2-0.0" type="actor-car_type_1-3374602296423734617" depart="0.00" departLane="0" departPos="random" departSpeed="max" arrivalLane="0" arrivalPos="random">
        <route edges="edge-south-SN edge-south-SE edge-east-EN edge-north-SN"/>
    </vehicle>
    <vehicle id="car_type_1-flow-route-edge-south-SN_0_random-edge-west-EW_0_random-1333257972050861541--5089521481869815761--1-0.0" type="actor-car_type_1-3374602296423734617" depart="0.00" departLane="0" departPos="random" departSpeed="max" arrivalLane="0" arrivalPos="random">
        <route edges="edge-south-SN edge-south-SE edge-east-EN edge-north-NW edge-west-EW"/>
    </vehicle>
    <vehicle id="car_type_1-flow-route-edge-west-WE_0_random-edge-east-WE_0_random-4750823615573794969--5089521481869815761--3-0.0" type="actor-car_type_1-3374602296423734617" depart="0.00" departLane="0" departPos="random" departSpeed="max" arrivalLane="0" arrivalPos="random">
        <route edges="edge-west-WE edge-west-WS edge-south-SE edge-east-WE"/>
    </vehicle>
    <vehicle id="car_type_1-flow-route-edge-west-WE_0_random-edge-north-SN_0_random-954882014406267458--5089521481869815761--5-0.0" type="actor-car_type_1-3374602296423734617" depart="0.00" departLane="0" departPos="random" departSpeed="max" arrivalLane="0" arrivalPos="random">
        <route edges="edge-west-WE edge-west-WS edge-south-SE edge-east-EN edge-north-SN"/>
    </vehicle>
    <vehicle id="car_type_1-flow-route-edge-west-WE_0_random-edge-south-NS_0_random-5502061418828684286--5089521481869815761--4-0.0" type="actor-car_type_1-3374602296423734617" depart="0.00" departLane="0" departPos="random" departSpeed="max" arrivalLane="0" arrivalPos="random">
        <route edges="edge-west-WE edge-west-WS edge-south-NS"/>
    </vehicle>
    <vType id="actor-car_type_2-8096575422649664651" minGap="3.47" maxSpeed="55.50" speedFactor="normc(0.62,0.10,0.20,2.00)" vClass="passenger" impatience="0.49" lcCooperative="0.7368524977675563" lcSpeedGain="1.9348843058426752" lcImpatience="0.7071688191643464" jmIgnoreFoeProb="0.7668916926285521" accel="2.6" decel="4.5" sigma="0.5554840847983147"/>
    <vehicle id="car_type_2-flow-route-edge-east-EN_1_random-edge-south-NS_0_random--7208710187886197689--5089521481869815761--9-1.0" type="actor-car_type_2-8096575422649664651" depart="0.00" departLane="1" departPos="random" departSpeed="max" arrivalLane="0" arrivalPos="random">
        <route edges="edge-east-EN edge-north-NW edge-west-WS edge-south-NS"/>
    </vehicle>
    <vehicle id="car_type_2-flow-route-edge-north-NS_0_random-edge-east-WE_0_random-1762057608705153101--5089521481869815761--6-1.0" type="actor-car_type_2-8096575422649664651" depart="0.00" departLane="0" departPos="random" departSpeed="max" arrivalLane="0" arrivalPos="random">
        <route edges="edge-north-NS edge-north-NW edge-west-WS edge-south-SE edge-east-WE"/>
    </vehicle>
    <vehicle id="car_type_2-flow-route-edge-north-NS_0_random-edge-south-NS_0_random-7182744788378599042--5089521481869815761--7-1.0" type="actor-car_type_2-8096575422649664651" depart="0.00" departLane="0" departPos="random" departSpeed="max" arrivalLane="0" arrivalPos="random">
        <route edges="edge-north-NS edge-north-NW edge-west-WS edge-south-NS"/>
    </vehicle>
    <vehicle id="car_type_2-flow-route-edge-north-NS_0_random-edge-west-EW_0_random--3964325484813977239--5089521481869815761--8-1.0" type="actor-car_type_2-8096575422649664651" depart="0.00" departLane="0" departPos="random" departSpeed="max" arrivalLane="0" arrivalPos="random">
        <route edges="edge-north-NS edge-north-NW edge-west-EW"/>
    </vehicle>
    <vehicle id="car_type_2-flow-route-edge-south-SN_0_random-edge-east-WE_0_random--2303355590823367471--5089521481869815761--0-1.0" type="actor-car_type_2-8096575422649664651" depart="0.00" departLane="0" departPos="random" departSpeed="max" arrivalLane="0" arrivalPos="random">
        <route edges="edge-south-SN edge-south-SE edge-east-WE"/>
    </vehicle>
    <vehicle id="car_type_2-flow-route-edge-south-SN_0_random-edge-north-SN_0_random--6226958181857325958--5089521481869815761--2-1.0" type="actor-car_type_2-8096575422649664651" depart="0.00" departLane="0" departPos="random" departSpeed="max" arrivalLane="0" arrivalPos="random">
        <route edges="edge-south-SN edge-south-SE edge-east-EN edge-north-SN"/>
    </vehicle>
    <vehicle id="car_type_2-flow-route-edge-south-SN_0_random-edge-west-EW_0_random-1333257972050861541--5089521481869815761--1-1.0" type="actor-car_type_2-8096575422649664651" depart="0.00" departLane="0" departPos="random" departSpeed="max" arrivalLane="0" arrivalPos="random">
        <route edges="edge-south-SN edge-south-SE edge-east-EN edge-north-NW edge-west-EW"/>
    </vehicle>
    <vehicle id="car_type_2-flow-route-edge-west-WE_0_random-edge-east-WE_0_random-4750823615573794969--5089521481869815761--3-1.0" type="actor-car_type_2-8096575422649664651" depart="0.00" departLane="0" departPos="random" departSpeed="max" arrivalLane="0" arrivalPos="random">
        <route edges="edge-west-WE edge-west-WS edge-south-SE edge-east-WE"/>
    </vehicle>
    <vehicle id="car_type_2-flow-route-edge-west-WE_0_random-edge-north-SN_0_random-954882014406267458--5089521481869815761--5-1.0" type="actor-car_type_2-8096575422649664651" depart="0.00" departLane="0" departPos="random" departSpeed="max" arrivalLane="0" arrivalPos="random">
        <route edges="edge-west-WE edge-west-WS edge-south-SE edge-east-EN edge-north-SN"/>
    </vehicle>
    <vehicle id="car_type_2-flow-route-edge-west-WE_0_random-edge-south-NS_0_random-5502061418828684286--5089521481869815761--4-1.0" type="actor-car_type_2-8096575422649664651" depart="0.00" departLane="0" departPos="random" departSpeed="max" arrivalLane="0" arrivalPos="random">
        <route edges="edge-west-WE edge-west-WS edge-south-NS"/>
    </vehicle>
    <vType id="actor-car_type_3-5163448209821544234" minGap="3.07" maxSpeed="55.50" speedFactor="normc(0.96,0.10,0.20,2.00)" vClass="passenger" impatience="0.68" lcCooperative="0.7750530684504632" lcSpeedGain="1.2688216844980689" lcImpatience="0.49649586104254095" jmIgnoreFoeProb="0.8097390251487394" accel="2.6" decel="4.5" sigma="0.6818992824891862"/>
    <vehicle id="car_type_3-flow-route-edge-east-EN_1_random-edge-south-NS_0_random--7208710187886197689--5089521481869815761--9-2.0" type="actor-car_type_3-5163448209821544234" depart="0.00" departLane="1" departPos="random" departSpeed="max" arrivalLane="0" arrivalPos="random">
        <route edges="edge-east-EN edge-north-NW edge-west-WS edge-south-NS"/>
    </vehicle>
    <vehicle id="car_type_3-flow-route-edge-north-NS_0_random-edge-east-WE_0_random-1762057608705153101--5089521481869815761--6-2.0" type="actor-car_type_3-5163448209821544234" depart="0.00" departLane="0" departPos="random" departSpeed="max" arrivalLane="0" arrivalPos="random">
        <route edges="edge-north-NS edge-north-NW edge-west-WS edge-south-SE edge-east-WE"/>
    </vehicle>
    <vehicle id="car_type_3-flow-route-edge-north-NS_0_random-edge-south-NS_0_random-7182744788378599042--5089521481869815761--7-2.0" type="actor-car_type_3-5163448209821544234" depart="0.00" departLane="0" departPos="random" departSpeed="max" arrivalLane="0" arrivalPos="random">
        <route edges="edge-north-NS edge-north-NW edge-west-WS edge-south-NS"/>
    </vehicle>
    <vehicle id="car_type_3-flow-route-edge-north-NS_0_random-edge-west-EW_0_random--3964325484813977239--5089521481869815761--8-2.0" type="actor-car_type_3-5163448209821544234" depart="0.00" departLane="0" departPos="random" departSpeed="max" arrivalLane="0" arrivalPos="random">
        <route edges="edge-north-NS edge-north-NW edge-west-EW"/>
    </vehicle>
    <vehicle id="car_type_3-flow-route-edge-south-SN_0_random-edge-east-WE_0_random--2303355590823367471--5089521481869815761--0-2.0" type="actor-car_type_3-5163448209821544234" depart="0.00" departLane="0" departPos="random" departSpeed="max" arrivalLane="0" arrivalPos="random">
        <route edges="edge-south-SN edge-south-SE edge-east-WE"/>
    </vehicle>
    <vehicle id="car_type_3-flow-route-edge-south-SN_0_random-edge-north-SN_0_random--6226958181857325958--5089521481869815761--2-2.0" type="actor-car_type_3-5163448209821544234" depart="0.00" departLane="0" departPos="random" departSpeed="max" arrivalLane="0" arrivalPos="random">
        <route edges="edge-south-SN edge-south-SE edge-east-EN edge-north-SN"/>
    </vehicle>
    <vehicle id="car_type_3-flow-route-edge-south-SN_0_random-edge-west-EW_0_random-1333257972050861541--5089521481869815761--1-2.0" type="actor-car_type_3-5163448209821544234" depart="0.00" departLane="0" departPos="random" departSpeed="max" arrivalLane="0" arrivalPos="random">
        <route edges="edge-south-SN edge-south-SE edge-east-EN edge-north-NW edge-west-EW"/>
    </vehicle>
    <vehicle id="car_type_3-flow-route-edge-west-WE_0_random-edge-east-WE_0_random-4750823615573794969--5089521481869815761--3-2.0" type="actor-car_type_3-5163448209821544234" depart="0.00" departLane="0" departPos="random" departSpeed="max" arrivalLane="0" arrivalPos="random">
        <route edges="edge-west-WE edge-west-WS edge-south-SE edge-east-WE"/>
    </vehicle>
    <vehicle id="car_type_3-flow-route-edge-west-WE_0_random-edge-north-SN_0_random-954882014406267458--5089521481869815761--5-2.0" type="actor-car_type_3-5163448209821544234" depart="0.00" departLane="0" departPos="random" departSpeed="max" arrivalLane="0" arrivalPos="random">
        <route edges="edge-west-WE edge-west-WS edge-south-SE edge-east-EN edge-north-SN"/>
    </vehicle>
    <vehicle id="car_type_3-flow-route-edge-west-WE_0_random-edge-south-NS_0_random-5502061418828684286--5089521481869815761--4-2.0" type="actor-car_type_3-5163448209821544234" depart="0.00" departLane="0" departPos="random" departSpeed="max" arrivalLane="0" arrivalPos="random">
        <route edges="edge-west-WE edge-west-WS edge-south-NS"/>
    </vehicle>
    <vType id="actor-car_type_4-6440143763266929434" minGap="3.57" maxSpeed="55.50" speedFactor="normc(0.64,0.10,0.20,2.00)" vClass="passenger" impatience="0.05" lcCooperative="0.16234051817043804" lcSpeedGain="1.5284473050464151" lcImpatience="0.009054029593595248" jmIgnoreFoeProb="0.7346353272878949" accel="2.6" decel="4.5" sigma="0.2719404085791289"/>
    <vehicle id="car_type_4-flow-route-edge-east-EN_1_random-edge-south-NS_0_random--7208710187886197689--5089521481869815761--9-3.0" type="actor-car_type_4-6440143763266929434" depart="0.00" departLane="1" departPos="random" departSpeed="max" arrivalLane="0" arrivalPos="random">
        <route edges="edge-east-EN edge-north-NW edge-west-WS edge-south-NS"/>
    </vehicle>
    <vehicle id="car_type_4-flow-route-edge-north-NS_0_random-edge-east-WE_0_random-1762057608705153101--5089521481869815761--6-3.0" type="actor-car_type_4-6440143763266929434" depart="0.00" departLane="0" departPos="random" departSpeed="max" arrivalLane="0" arrivalPos="random">
        <route edges="edge-north-NS edge-north-NW edge-west-WS edge-south-SE edge-east-WE"/>
    </vehicle>
    <vehicle id="car_type_4-flow-route-edge-north-NS_0_random-edge-south-NS_0_random-7182744788378599042--5089521481869815761--7-3.0" type="actor-car_type_4-6440143763266929434" depart="0.00" departLane="0" departPos="random" departSpeed="max" arrivalLane="0" arrivalPos="random">
        <route edges="edge-north-NS edge-north-NW edge-west-WS edge-south-NS"/>
    </vehicle>
    <vehicle id="car_type_4-flow-route-edge-north-NS_0_random-edge-west-EW_0_random--3964325484813977239--5089521481869815761--8-3.0" type="actor-car_type_4-6440143763266929434" depart="0.00" departLane="0" departPos="random" departSpeed="max" arrivalLane="0" arrivalPos="random">
        <route edges="edge-north-NS edge-north-NW edge-west-EW"/>
    </vehicle>
    <vehicle id="car_type_4-flow-route-edge-south-SN_0_random-edge-east-WE_0_random--2303355590823367471--5089521481869815761--0-3.0" type="actor-car_type_4-6440143763266929434" depart="0.00" departLane="0" departPos="random" departSpeed="max" arrivalLane="0" arrivalPos="random">
        <route edges="edge-south-SN edge-south-SE edge-east-WE"/>
    </vehicle>
    <vehicle id="car_type_4-flow-route-edge-south-SN_0_random-edge-north-SN_0_random--6226958181857325958--5089521481869815761--2-3.0" type="actor-car_type_4-6440143763266929434" depart="0.00" departLane="0" departPos="random" departSpeed="max" arrivalLane="0" arrivalPos="random">
        <route edges="edge-south-SN edge-south-SE edge-east-EN edge-north-SN"/>
    </vehicle>
    <vehicle id="car_type_4-flow-route-edge-south-SN_0_random-edge-west-EW_0_random-1333257972050861541--5089521481869815761--1-3.0" type="actor-car_type_4-6440143763266929434" depart="0.00" departLane="0" departPos="random" departSpeed="max" arrivalLane="0" arrivalPos="random">
        <route edges="edge-south-SN edge-south-SE edge-east-EN edge-north-NW edge-west-EW"/>
    </vehicle>
    <vehicle id="car_type_4-flow-route-edge-west-WE_0_random-edge-east-WE_0_random-4750823615573794969--5089521481869815761--3-3.0" type="actor-car_type_4-6440143763266929434" depart="0.00" departLane="0" departPos="random" departSpeed="max" arrivalLane="0" arrivalPos="random">
        <route edges="edge-west-WE edge-west-WS edge-south-SE edge-east-WE"/>
    </vehicle>
    <vehicle id="car_type_4-flow-route-edge-west-WE_0_random-edge-north-SN_0_random-954882014406267458--5089521481869815761--5-3.0" type="actor-car_type_4-6440143763266929434" depart="0.00" departLane="0" departPos="random" departSpeed="max" arrivalLane="0" arrivalPos="random">
        <route edges="edge-west-WE edge-west-WS edge-south-SE edge-east-EN edge-north-SN"/>
    </vehicle>
    <vehicle id="car_type_4-flow-route-edge-west-WE_0_random-edge-south-NS_0_random-5502061418828684286--5089521481869815761--4-3.0" type="actor-car_type_4-6440143763266929434" depart="0.00" departLane="0" departPos="random" departSpeed="max" arrivalLane="0" arrivalPos="random">
        <route edges="edge-west-WE edge-west-WS edge-south-NS"/>
    </vehicle>
    <vType id="actor-car_type_5--2522274313280887940" minGap="3.88" maxSpeed="55.50" speedFactor="normc(0.75,0.10,0.20,2.00)" vClass="passenger" impatience="0.97" lcCooperative="0.7607976698904921" lcSpeedGain="1.602615976383854" lcImpatience="0.0362375282925268" jmIgnoreFoeProb="0.6707484668622316" accel="2.6" decel="4.5" sigma="0.45500182040031567"/>
    <vehicle id="car_type_5-flow-route-edge-east-EN_1_random-edge-south-NS_0_random--7208710187886197689--5089521481869815761--9-4.0" type="actor-car_type_5--2522274313280887940" depart="0.00" departLane="1" departPos="random" departSpeed="max" arrivalLane="0" arrivalPos="random">
        <route edges="edge-east-EN edge-north-NW edge-west-WS edge-south-NS"/>
    </vehicle>
    <vehicle id="car_type_5-flow-route-edge-north-NS_0_random-edge-east-WE_0_random-1762057608705153101--5089521481869815761--6-4.0" type="actor-car_type_5--2522274313280887940" depart="0.00" departLane="0" departPos="random" departSpeed="max" arrivalLane="0" arrivalPos="random">
        <route edges="edge-north-NS edge-north-NW edge-west-WS edge-south-SE edge-east-WE"/>
    </vehicle>
    <vehicle id="car_type_5-flow-route-edge-north-NS_0_random-edge-south-NS_0_random-7182744788378599042--5089521481869815761--7-4.0" type="actor-car_type_5--2522274313280887940" depart="0.00" departLane="0" departPos="random" departSpeed="max" arrivalLane="0" arrivalPos="random">
        <route edges="edge-north-NS edge-north-NW edge-west-WS edge-south-NS"/>
    </vehicle>
    <vehicle id="car_type_5-flow-route-edge-north-NS_0_random-edge-west-EW_0_random--3964325484813977239--5089521481869815761--8-4.0" type="actor-car_type_5--2522274313280887940" depart="0.00" departLane="0" departPos="random" departSpeed="max" arrivalLane="0" arrivalPos="random">
        <route edges="edge-north-NS edge-north-NW edge-west-EW"/>
    </vehicle>
    <vehicle id="car_type_5-flow-route-edge-south-SN_0_random-edge-east-WE_0_random--2303355590823367471--5089521481869815761--0-4.0" type="actor-car_type_5--2522274313280887940" depart="0.00" departLane="0" departPos="random" departSpeed="max" arrivalLane="0" arrivalPos="random">
        <route edges="edge-south-SN edge-south-SE edge-east-WE"/>
    </vehicle>
    <vehicle id="car_type_5-flow-route-edge-south-SN_0_random-edge-north-SN_0_random--6226958181857325958--5089521481869815761--2-4.0" type="actor-car_type_5--2522274313280887940" depart="0.00" departLane="0" departPos="random" departSpeed="max" arrivalLane="0" arrivalPos="random">
        <route edges="edge-south-SN edge-south-SE edge-east-EN edge-north-SN"/>
    </vehicle>
    <vehicle id="car_type_5-flow-route-edge-south-SN_0_random-edge-west-EW_0_random-1333257972050861541--5089521481869815761--1-4.0" type="actor-car_type_5--2522274313280887940" depart="0.00" departLane="0" departPos="random" departSpeed="max" arrivalLane="0" arrivalPos="random">
        <route edges="edge-south-SN edge-south-SE edge-east-EN edge-north-NW edge-west-EW"/>
    </vehicle>
    <vehicle id="car_type_5-flow-route-edge-west-WE_0_random-edge-east-WE_0_random-4750823615573794969--5089521481869815761--3-4.0" type="actor-car_type_5--2522274313280887940" depart="0.00" departLane="0" departPos="random" departSpeed="max" arrivalLane="0" arrivalPos="random">
        <route edges="edge-west-WE edge-west-WS edge-south-SE edge-east-WE"/>
    </vehicle>
    <vehicle id="car_type_5-flow-route-edge-west-WE_0_random-edge-north-SN_0_random-954882014406267458--5089521481869815761--5-4.0" type="actor-car_type_5--2522274313280887940" depart="0.00" departLane="0" departPos="random" departSpeed="max" arrivalLane="0" arrivalPos="random">
        <route edges="edge-west-WE edge-west-WS edge-south-SE edge-east-EN edge-north-SN"/>
    </vehicle>
    <vehicle id="car_type_5-flow-route-edge-west-WE_0_random-edge-south-NS_0_random-5502061418828684286--5089521481869815761--4-4.0" type="actor-car_type_5--2522274313280887940" depart="0.00" departLane="0" departPos="random" departSpeed="max" arrivalLane="0" arrivalPos="random">
        <route edges="edge-west-WE edge-west-WS edge-south-NS"/>
    </vehicle>
    <vType id="actor-car_type_6--8120938706755344213" minGap="3.88" maxSpeed="55.50" speedFactor="normc(0.88,0.10,0.20,2.00)" vClass="passenger" impatience="0.72" lcCooperative="0.27202270573173093" lcSpeedGain="1.9842672116708409" lcImpatience="0.4161247901360243" jmIgnoreFoeProb="0.9325343385868661" accel="2.6" decel="4.5" sigma="0.21026088232625012"/>
    <vehicle id="car_type_6-flow-route-edge-east-EN_1_random-edge-south-NS_0_random--7208710187886197689--5089521481869815761--9-5.0" type="actor-car_type_6--8120938706755344213" depart="0.00" departLane="1" departPos="random" departSpeed="max" arrivalLane="0" arrivalPos="random">
        <route edges="edge-east-EN edge-north-NW edge-west-WS edge-south-NS"/>
    </vehicle>
    <vehicle id="car_type_6-flow-route-edge-north-NS_0_random-edge-east-WE_0_random-1762057608705153101--5089521481869815761--6-5.0" type="actor-car_type_6--8120938706755344213" depart="0.00" departLane="0" departPos="random" departSpeed="max" arrivalLane="0" arrivalPos="random">
        <route edges="edge-north-NS edge-north-NW edge-west-WS edge-south-SE edge-east-WE"/>
    </vehicle>
    <vehicle id="car_type_6-flow-route-edge-north-NS_0_random-edge-south-NS_0_random-7182744788378599042--5089521481869815761--7-5.0" type="actor-car_type_6--8120938706755344213" depart="0.00" departLane="0" departPos="random" departSpeed="max" arrivalLane="0" arrivalPos="random">
        <route edges="edge-north-NS edge-north-NW edge-west-WS edge-south-NS"/>
    </vehicle>
    <vehicle id="car_type_6-flow-route-edge-north-NS_0_random-edge-west-EW_0_random--3964325484813977239--5089521481869815761--8-5.0" type="actor-car_type_6--8120938706755344213" depart="0.00" departLane="0" departPos="random" departSpeed="max" arrivalLane="0" arrivalPos="random">
        <route edges="edge-north-NS edge-north-NW edge-west-EW"/>
    </vehicle>
    <vehicle id="car_type_6-flow-route-edge-south-SN_0_random-edge-east-WE_0_random--2303355590823367471--5089521481869815761--0-5.0" type="actor-car_type_6--8120938706755344213" depart="0.00" departLane="0" departPos="random" departSpeed="max" arrivalLane="0" arrivalPos="random">
        <route edges="edge-south-SN edge-south-SE edge-east-WE"/>
    </vehicle>
    <vehicle id="car_type_6-flow-route-edge-south-SN_0_random-edge-north-SN_0_random--6226958181857325958--5089521481869815761--2-5.0" type="actor-car_type_6--8120938706755344213" depart="0.00" departLane="0" departPos="random" departSpeed="max" arrivalLane="0" arrivalPos="random">
        <route edges="edge-south-SN edge-south-SE edge-east-EN edge-north-SN"/>
    </vehicle>
    <vehicle id="car_type_6-flow-route-edge-south-SN_0_random-edge-west-EW_0_random-1333257972050861541--5089521481869815761--1-5.0" type="actor-car_type_6--8120938706755344213" depart="0.00" departLane="0" departPos="random" departSpeed="max" arrivalLane="0" arrivalPos="random">
        <route edges="edge-south-SN edge-south-SE edge-east-EN edge-north-NW edge-west-EW"/>
    </vehicle>
    <vehicle id="car_type_6-flow-route-edge-west-WE_0_random-edge-east-WE_0_random-4750823615573794969--5089521481869815761--3-5.0" type="actor-car_type_6--8120938706755344213" depart="0.00" departLane="0" departPos="random" departSpeed="max" arrivalLane="0" arrivalPos="random">
        <route edges="edge-west-WE edge-west-WS edge-south-SE edge-east-WE"/>
    </vehicle>
    <vehicle id="car_type_6-flow-route-edge-west-WE_0_random-edge-north-SN_0_random-954882014406267458--5089521481869815761--5-5.0" type="actor-car_type_6--8120938706755344213" depart="0.00" departLane="0" departPos="random" departSpeed="max" arrivalLane="0" arrivalPos="random">
        <route edges="edge-west-WE edge-west-WS edge-south-SE edge-east-EN edge-north-SN"/>
    </vehicle>
    <vehicle id="car_type_6-flow-route-edge-west-WE_0_random-edge-south-NS_0_random-5502061418828684286--5089521481869815761--4-5.0" type="actor-car_type_6--8120938706755344213" depart="0.00" departLane="0" departPos="random" departSpeed="max" arrivalLane="0" arrivalPos="random">
        <route edges="edge-west-WE edge-west-WS edge-south-NS"/>
    </vehicle>
    <vehicle id="car_type_1-flow-route-edge-east-EN_1_random-edge-south-NS_0_random--7208710187886197689--5089521481869815761--9-0.1" type="actor-car_type_1-3374602296423734617" depart="216.00" departLane="1" departPos="random" departSpeed="max" arrivalLane="0" arrivalPos="random">
        <route edges="edge-east-EN edge-north-NW edge-west-WS edge-south-NS"/>
    </vehicle>
    <vehicle id="car_type_1-flow-route-edge-north-NS_0_random-edge-east-WE_0_random-1762057608705153101--5089521481869815761--6-0.1" type="actor-car_type_1-3374602296423734617" depart="216.00" departLane="0" departPos="random" departSpeed="max" arrivalLane="0" arrivalPos="random">
        <route edges="edge-north-NS edge-north-NW edge-west-WS edge-south-SE edge-east-WE"/>
    </vehicle>
    <vehicle id="car_type_1-flow-route-edge-north-NS_0_random-edge-south-NS_0_random-7182744788378599042--5089521481869815761--7-0.1" type="actor-car_type_1-3374602296423734617" depart="216.00" departLane="0" departPos="random" departSpeed="max" arrivalLane="0" arrivalPos="random">
        <route edges="edge-north-NS edge-north-NW edge-west-WS edge-south-NS"/>
    </vehicle>
    <vehicle id="car_type_1-flow-route-edge-north-NS_0_random-edge-west-EW_0_random--3964325484813977239--5089521481869815761--8-0.1" type="actor-car_type_1-3374602296423734617" depart="216.00" departLane="0" departPos="random" departSpeed="max" arrivalLane="0" arrivalPos="random">
        <route edges="edge-north-NS edge-north-NW edge-west-EW"/>
    </vehicle>
    <vehicle id="car_type_1-flow-route-edge-south-SN_0_random-edge-east-WE_0_random--2303355590823367471--5089521481869815761--0-0.1" type="actor-car_type_1-3374602296423734617" depart="216.00" departLane="0" departPos="random" departSpeed="max" arrivalLane="0" arrivalPos="random">
        <route edges="edge-south-SN edge-south-SE edge-east-WE"/>
    </vehicle>
    <vehicle id="car_type_1-flow-route-edge-south-SN_0_random-edge-north-SN_0_random--6226958181857325958--5089521481869815761--2-0.1" type="actor-car_type_1-3374602296423734617" depart="216.00" departLane="0" departPos="random" departSpeed="max" arrivalLane="0" arrivalPos="random">
        <route edges="edge-south-SN edge-south-SE edge-east-EN edge-north-SN"/>
    </vehicle>
    <vehicle id="car_type_1-flow-route-edge-south-SN_0_random-edge-west-EW_0_random-1333257972050861541--5089521481869815761--1-0.1" type="actor-car_type_1-3374602296423734617" depart="216.00" departLane="0" departPos="random" departSpeed="max" arrivalLane="0" arrivalPos="random">
        <route edges="edge-south-SN edge-south-SE edge-east-EN edge-north-NW edge-west-EW"/>
    </vehicle>
    <vehicle id="car_type_1-flow-route-edge-west-WE_0_random-edge-east-WE_0_random-4750823615573794969--5089521481869815761--3-0.1" type="actor-car_type_1-3374602296423734617" depart="216.00" departLane="0" departPos="random" departSpeed="max" arrivalLane="0" arrivalPos="random">
        <route edges="edge-west-WE edge-west-WS edge-south-SE edge-east-WE"/>
    </vehicle>
    <vehicle id="car_type_1-flow-route-edge-west-WE_0_random-edge-north-SN_0_random-954882014406267458--5089521481869815761--5-0.1" type="actor-car_type_1-3374602296423734617" depart="216.00" departLane="0" departPos="random" departSpeed="max" arrivalLane="0" arrivalPos="random">
        <route edges="edge-west-WE edge-west-WS edge-south-SE edge-east-EN edge-north-SN"/>
    </vehicle>
    <vehicle id="car_type_1-flow-route-edge-west-WE_0_random-edge-south-NS_0_random-5502061418828684286--5089521481869815761--4-0.1" type="actor-car_type_1-3374602296423734617" depart="216.00" departLane="0" departPos="random" departSpeed="max" arrivalLane="0" arrivalPos="random">
        <route edges="edge-west-WE edge-west-WS edge-south-NS"/>
    </vehicle>
    <vehicle id="car_type_2-flow-route-edge-east-EN_1_random-edge-south-NS_0_random--7208710187886197689--5089521481869815761--9-1.1" type="actor-car_type_2-8096575422649664651" depart="216.00" departLane="1" departPos="random" departSpeed="max" arrivalLane="0" arrivalPos="random">
        <route edges="edge-east-EN edge-north-NW edge-west-WS edge-south-NS"/>
    </vehicle>