<?xml version="1.0" encoding="UTF-8"?>

<!-- generated on 2021-10-23 11:46:11 by Eclipse SUMO duarouter Version 1.10.0
<configuration xmlns:xsi="http://www.w3.org/2001/XMLSchema-instance" xsi:noNamespaceSchemaLocation="http://sumo.dlr.de/xsd/duarouterConfiguration.xsd">

    <input>
        <net-file value="/home/automan/Project3/NNLS_R1/scenarios/roundabout/map.net.xml"/>
        <route-files value="/tmp/tmppzdvpwn4/trips.trips.xml"/>
    </input>

    <output>
        <output-file value="/home/automan/Project3/NNLS_R1/scenarios/roundabout/traffic/traffic_925.rou.xml"/>
        <alternatives-output value="/home/automan/Project3/NNLS_R1/scenarios/roundabout/traffic/traffic_925.rou.alt.xml"/>
    </output>

    <processing>
        <unsorted-input value="true"/>
        <repair value="true"/>
    </processing>

    <report>
        <error-log value="/home/automan/.smarts/_duarouter_routing/traffic/traffic_925.log"/>
        <no-step-log value="true"/>
    </report>

    <random_number>
        <seed value="925"/>
    </random_number>

</configuration>
-->

<routes xmlns:xsi="http://www.w3.org/2001/XMLSchema-instance" xsi:noNamespaceSchemaLocation="http://sumo.dlr.de/xsd/routes_file.xsd">
    <vType id="actor-car_type_1-4681268210671173236" minGap="2.62" maxSpeed="55.50" speedFactor="normc(0.92,0.10,0.20,2.00)" vClass="passenger" impatience="0.19" lcCooperative="0.75682891242346" lcSpeedGain="1.9767234260075726" lcImpatience="0.7500316268499612" jmIgnoreFoeProb="0.44373147547692315" accel="2.6" decel="4.5" sigma="0.5769319400745301"/>
    <vehicle id="car_type_1-flow-route-edge-east-EN_1_random-edge-south-NS_0_random-2869321101968521312---9012035525807560136--9-0.0" type="actor-car_type_1-4681268210671173236" depart="0.00" departLane="1" departPos="random" departSpeed="max" arrivalLane="0" arrivalPos="random">
        <route edges="edge-east-EN edge-north-NW edge-west-WS edge-south-NS"/>
    </vehicle>
    <vehicle id="car_type_1-flow-route-edge-north-NS_0_random-edge-east-WE_0_random-1024225989189090795---9012035525807560136--6-0.0" type="actor-car_type_1-4681268210671173236" depart="0.00" departLane="0" departPos="random" departSpeed="max" arrivalLane="0" arrivalPos="random">
        <route edges="edge-north-NS edge-north-NW edge-west-WS edge-south-SE edge-east-WE"/>
    </vehicle>
    <vehicle id="car_type_1-flow-route-edge-north-NS_0_random-edge-south-NS_0_random-5884962658851547761---9012035525807560136--7-0.0" type="actor-car_type_1-4681268210671173236" depart="0.00" departLane="0" departPos="random" departSpeed="max" arrivalLane="0" arrivalPos="random">
        <route edges="edge-north-NS edge-north-NW edge-west-WS edge-south-NS"/>
    </vehicle>
    <vehicle id="car_type_1-flow-route-edge-north-NS_0_random-edge-west-EW_0_random-3497666692637715606---9012035525807560136--8-0.0" type="actor-car_type_1-4681268210671173236" depart="0.00" departLane="0" departPos="random" departSpeed="max" arrivalLane="0" arrivalPos="random">
        <route edges="edge-north-NS edge-north-NW edge-west-EW"/>
    </vehicle>
    <vehicle id="car_type_1-flow-route-edge-south-SN_0_random-edge-east-WE_0_random-5313510630307015898---9012035525807560136--0-0.0" type="actor-car_type_1-4681268210671173236" depart="0.00" departLane="0" departPos="random" departSpeed="max" arrivalLane="0" arrivalPos="random">
        <route edges="edge-south-SN edge-south-SE edge-east-WE"/>
    </vehicle>
    <vehicle id="car_type_1-flow-route-edge-south-SN_0_random-edge-north-SN_0_random--8320095762011564436---9012035525807560136--2-0.0" type="actor-car_type_1-4681268210671173236" depart="0.00" departLane="0" departPos="random" departSpeed="max" arrivalLane="0" arrivalPos="random">
        <route edges="edge-south-SN edge-south-SE edge-east-EN edge-north-SN"/>
    </vehicle>
    <vehicle id="car_type_1-flow-route-edge-south-SN_0_random-edge-west-EW_0_random-4255269262314118599---9012035525807560136--1-0.0" type="actor-car_type_1-4681268210671173236" depart="0.00" departLane="0" departPos="random" departSpeed="max" arrivalLane="0" arrivalPos="random">
        <route edges="edge-south-SN edge-south-SE edge-east-EN edge-north-NW edge-west-EW"/>
    </vehicle>
    <vehicle id="car_type_1-flow-route-edge-west-WE_0_random-edge-east-WE_0_random--5905405562819648963---9012035525807560136--3-0.0" type="actor-car_type_1-4681268210671173236" depart="0.00" departLane="0" departPos="random" departSpeed="max" arrivalLane="0" arrivalPos="random">
        <route edges="edge-west-WE edge-west-WS edge-south-SE edge-east-WE"/>
    </vehicle>
    <vehicle id="car_type_1-flow-route-edge-west-WE_0_random-edge-north-SN_0_random--4034857803880933133---9012035525807560136--5-0.0" type="actor-car_type_1-4681268210671173236" depart="0.00" departLane="0" departPos="random" departSpeed="max" arrivalLane="0" arrivalPos="random">
        <route edges="edge-west-WE edge-west-WS edge-south-SE edge-east-EN edge-north-SN"/>
    </vehicle>
    <vehicle id="car_type_1-flow-route-edge-west-WE_0_random-edge-south-NS_0_random-5050240295409023071---9012035525807560136--4-0.0" type="actor-car_type_1-4681268210671173236" depart="0.00" departLane="0" departPos="random" departSpeed="max" arrivalLane="0" arrivalPos="random">
        <route edges="edge-west-WE edge-west-WS edge-south-NS"/>
    </vehicle>
    <vType id="actor-car_type_2-8425280960043699506" minGap="2.91" maxSpeed="55.50" speedFactor="normc(0.91,0.10,0.20,2.00)" vClass="passenger" impatience="0.23" lcCooperative="0.49609734679751594" lcSpeedGain="1.5899495836226971" lcImpatience="0.8452172685860616" jmIgnoreFoeProb="0.28014884516167426" accel="2.6" decel="4.5" sigma="0.6007513468781936"/>
    <vehicle id="car_type_2-flow-route-edge-east-EN_1_random-edge-south-NS_0_random-2869321101968521312---9012035525807560136--9-1.0" type="actor-car_type_2-8425280960043699506" depart="0.00" departLane="1" departPos="random" departSpeed="max" arrivalLane="0" arrivalPos="random">
        <route edges="edge-east-EN edge-north-NW edge-west-WS edge-south-NS"/>
    </vehicle>
    <vehicle id="car_type_2-flow-route-edge-north-NS_0_random-edge-east-WE_0_random-1024225989189090795---9012035525807560136--6-1.0" type="actor-car_type_2-8425280960043699506" depart="0.00" departLane="0" departPos="random" departSpeed="max" arrivalLane="0" arrivalPos="random">
        <route edges="edge-north-NS edge-north-NW edge-west-WS edge-south-SE edge-east-WE"/>
    </vehicle>
    <vehicle id="car_type_2-flow-route-edge-north-NS_0_random-edge-south-NS_0_random-5884962658851547761---9012035525807560136--7-1.0" type="actor-car_type_2-8425280960043699506" depart="0.00" departLane="0" departPos="random" departSpeed="max" arrivalLane="0" arrivalPos="random">
        <route edges="edge-north-NS edge-north-NW edge-west-WS edge-south-NS"/>
    </vehicle>
    <vehicle id="car_type_2-flow-route-edge-north-NS_0_random-edge-west-EW_0_random-3497666692637715606---9012035525807560136--8-1.0" type="actor-car_type_2-8425280960043699506" depart="0.00" departLane="0" departPos="random" departSpeed="max" arrivalLane="0" arrivalPos="random">
        <route edges="edge-north-NS edge-north-NW edge-west-EW"/>
    </vehicle>
    <vehicle id="car_type_2-flow-route-edge-south-SN_0_random-edge-east-WE_0_random-5313510630307015898---9012035525807560136--0-1.0" type="actor-car_type_2-8425280960043699506" depart="0.00" departLane="0" departPos="random" departSpeed="max" arrivalLane="0" arrivalPos="random">
        <route edges="edge-south-SN edge-south-SE edge-east-WE"/>
    </vehicle>
    <vehicle id="car_type_2-flow-route-edge-south-SN_0_random-edge-north-SN_0_random--8320095762011564436---9012035525807560136--2-1.0" type="actor-car_type_2-8425280960043699506" depart="0.00" departLane="0" departPos="random" departSpeed="max" arrivalLane="0" arrivalPos="random">
        <route edges="edge-south-SN edge-south-SE edge-east-EN edge-north-SN"/>
    </vehicle>
    <vehicle id="car_type_2-flow-route-edge-south-SN_0_random-edge-west-EW_0_random-4255269262314118599---9012035525807560136--1-1.0" type="actor-car_type_2-8425280960043699506" depart="0.00" departLane="0" departPos="random" departSpeed="max" arrivalLane="0" arrivalPos="random">
        <route edges="edge-south-SN edge-south-SE edge-east-EN edge-north-NW edge-west-EW"/>
    </vehicle>
    <vehicle id="car_type_2-flow-route-edge-west-WE_0_random-edge-east-WE_0_random--5905405562819648963---9012035525807560136--3-1.0" type="actor-car_type_2-8425280960043699506" depart="0.00" departLane="0" departPos="random" departSpeed="max" arrivalLane="0" arrivalPos="random">
        <route edges="edge-west-WE edge-west-WS edge-south-SE edge-east-WE"/>
    </vehicle>
    <vehicle id="car_type_2-flow-route-edge-west-WE_0_random-edge-north-SN_0_random--4034857803880933133---9012035525807560136--5-1.0" type="actor-car_type_2-8425280960043699506" depart="0.00" departLane="0" departPos="random" departSpeed="max" arrivalLane="0" arrivalPos="random">
        <route edges="edge-west-WE edge-west-WS edge-south-SE edge-east-EN edge-north-SN"/>
    </vehicle>
    <vehicle id="car_type_2-flow-route-edge-west-WE_0_random-edge-south-NS_0_random-5050240295409023071---9012035525807560136--4-1.0" type="actor-car_type_2-8425280960043699506" depart="0.00" departLane="0" departPos="random" departSpeed="max" arrivalLane="0" arrivalPos="random">
        <route edges="edge-west-WE edge-west-WS edge-south-NS"/>
    </vehicle>
    <vType id="actor-car_type_3-4031790998323352829" minGap="3.90" maxSpeed="55.50" speedFactor="normc(0.72,0.10,0.20,2.00)" vClass="passenger" impatience="0.22" lcCooperative="0.8989825752928009" lcSpeedGain="1.8302579225482334" lcImpatience="0.793736247802803" jmIgnoreFoeProb="0.48121950366868393" accel="2.6" decel="4.5" sigma="0.3986720513128519"/>
    <vehicle id="car_type_3-flow-route-edge-east-EN_1_random-edge-south-NS_0_random-2869321101968521312---9012035525807560136--9-2.0" type="actor-car_type_3-4031790998323352829" depart="0.00" departLane="1" departPos="random" departSpeed="max" arrivalLane="0" arrivalPos="random">
        <route edges="edge-east-EN edge-north-NW edge-west-WS edge-south-NS"/>
    </vehicle>
    <vehicle id="car_type_3-flow-route-edge-north-NS_0_random-edge-east-WE_0_random-1024225989189090795---9012035525807560136--6-2.0" type="actor-car_type_3-4031790998323352829" depart="0.00" departLane="0" departPos="random" departSpeed="max" arrivalLane="0" arrivalPos="random">
        <route edges="edge-north-NS edge-north-NW edge-west-WS edge-south-SE edge-east-WE"/>
    </vehicle>
    <vehicle id="car_type_3-flow-route-edge-north-NS_0_random-edge-south-NS_0_random-5884962658851547761---9012035525807560136--7-2.0" type="actor-car_type_3-4031790998323352829" depart="0.00" departLane="0" departPos="random" departSpeed="max" arrivalLane="0" arrivalPos="random">
        <route edges="edge-north-NS edge-north-NW edge-west-WS edge-south-NS"/>
    </vehicle>
    <vehicle id="car_type_3-flow-route-edge-north-NS_0_random-edge-west-EW_0_random-3497666692637715606---9012035525807560136--8-2.0" type="actor-car_type_3-4031790998323352829" depart="0.00" departLane="0" departPos="random" departSpeed="max" arrivalLane="0" arrivalPos="random">
        <route edges="edge-north-NS edge-north-NW edge-west-EW"/>
    </vehicle>
    <vehicle id="car_type_3-flow-route-edge-south-SN_0_random-edge-east-WE_0_random-5313510630307015898---9012035525807560136--0-2.0" type="actor-car_type_3-4031790998323352829" depart="0.00" departLane="0" departPos="random" departSpeed="max" arrivalLane="0" arrivalPos="random">
        <route edges="edge-south-SN edge-south-SE edge-east-WE"/>
    </vehicle>
    <vehicle id="car_type_3-flow-route-edge-south-SN_0_random-edge-north-SN_0_random--8320095762011564436---9012035525807560136--2-2.0" type="actor-car_type_3-4031790998323352829" depart="0.00" departLane="0" departPos="random" departSpeed="max" arrivalLane="0" arrivalPos="random">
        <route edges="edge-south-SN edge-south-SE edge-east-EN edge-north-SN"/>
    </vehicle>
    <vehicle id="car_type_3-flow-route-edge-south-SN_0_random-edge-west-EW_0_random-4255269262314118599---9012035525807560136--1-2.0" type="actor-car_type_3-4031790998323352829" depart="0.00" departLane="0" departPos="random" departSpeed="max" arrivalLane="0" arrivalPos="random">
        <route edges="edge-south-SN edge-south-SE edge-east-EN edge-north-NW edge-west-EW"/>
    </vehicle>
    <vehicle id="car_type_3-flow-route-edge-west-WE_0_random-edge-east-WE_0_random--5905405562819648963---9012035525807560136--3-2.0" type="actor-car_type_3-4031790998323352829" depart="0.00" departLane="0" departPos="random" departSpeed="max" arrivalLane="0" arrivalPos="random">
        <route edges="edge-west-WE edge-west-WS edge-south-SE edge-east-WE"/>
    </vehicle>
    <vehicle id="car_type_3-flow-route-edge-west-WE_0_random-edge-north-SN_0_random--4034857803880933133---9012035525807560136--5-2.0" type="actor-car_type_3-4031790998323352829" depart="0.00" departLane="0" departPos="random" departSpeed="max" arrivalLane="0" arrivalPos="random">
        <route edges="edge-west-WE edge-west-WS edge-south-SE edge-east-EN edge-north-SN"/>
    </vehicle>
    <vehicle id="car_type_3-flow-route-edge-west-WE_0_random-edge-south-NS_0_random-5050240295409023071---9012035525807560136--4-2.0" type="actor-car_type_3-4031790998323352829" depart="0.00" departLane="0" departPos="random" departSpeed="max" arrivalLane="0" arrivalPos="random">
        <route edges="edge-west-WE edge-west-WS edge-south-NS"/>
    </vehicle>
    <vType id="actor-car_type_4-4792252494311387282" minGap="2.35" maxSpeed="55.50" speedFactor="normc(0.86,0.10,0.20,2.00)" vClass="passenger" impatience="0.47" lcCooperative="0.6565644298332173" lcSpeedGain="1.6217543520373034" lcImpatience="0.2708996344309078" jmIgnoreFoeProb="0.5131645945643377" accel="2.6" decel="4.5" sigma="0.4144147329992114"/>
    <vehicle id="car_type_4-flow-route-edge-east-EN_1_random-edge-south-NS_0_random-2869321101968521312---9012035525807560136--9-3.0" type="actor-car_type_4-4792252494311387282" depart="0.00" departLane="1" departPos="random" departSpeed="max" arrivalLane="0" arrivalPos="random">
        <route edges="edge-east-EN edge-north-NW edge-west-WS edge-south-NS"/>
    </vehicle>
    <vehicle id="car_type_4-flow-route-edge-north-NS_0_random-edge-east-WE_0_random-1024225989189090795---9012035525807560136--6-3.0" type="actor-car_type_4-4792252494311387282" depart="0.00" departLane="0" departPos="random" departSpeed="max" arrivalLane="0" arrivalPos="random">
        <route edges="edge-north-NS edge-north-NW edge-west-WS edge-south-SE edge-east-WE"/>
    </vehicle>
    <vehicle id="car_type_4-flow-route-edge-north-NS_0_random-edge-south-NS_0_random-5884962658851547761---9012035525807560136--7-3.0" type="actor-car_type_4-4792252494311387282" depart="0.00" departLane="0" departPos="random" departSpeed="max" arrivalLane="0" arrivalPos="random">
        <route edges="edge-north-NS edge-north-NW edge-west-WS edge-south-NS"/>
    </vehicle>
    <vehicle id="car_type_4-flow-route-edge-north-NS_0_random-edge-west-EW_0_random-3497666692637715606---9012035525807560136--8-3.0" type="actor-car_type_4-4792252494311387282" depart="0.00" departLane="0" departPos="random" departSpeed="max" arrivalLane="0" arrivalPos="random">
        <route edges="edge-north-NS edge-north-NW edge-west-EW"/>
    </vehicle>
    <vehicle id="car_type_4-flow-route-edge-south-SN_0_random-edge-east-WE_0_random-5313510630307015898---9012035525807560136--0-3.0" type="actor-car_type_4-4792252494311387282" depart="0.00" departLane="0" departPos="random" departSpeed="max" arrivalLane="0" arrivalPos="random">
        <route edges="edge-south-SN edge-south-SE edge-east-WE"/>
    </vehicle>
    <vehicle id="car_type_4-flow-route-edge-south-SN_0_random-edge-north-SN_0_random--8320095762011564436---9012035525807560136--2-3.0" type="actor-car_type_4-4792252494311387282" depart="0.00" departLane="0" departPos="random" departSpeed="max" arrivalLane="0" arrivalPos="random">
        <route edges="edge-south-SN edge-south-SE edge-east-EN edge-north-SN"/>
    </vehicle>
    <vehicle id="car_type_4-flow-route-edge-south-SN_0_random-edge-west-EW_0_random-4255269262314118599---9012035525807560136--1-3.0" type="actor-car_type_4-4792252494311387282" depart="0.00" departLane="0" departPos="random" departSpeed="max" arrivalLane="0" arrivalPos="random">
        <route edges="edge-south-SN edge-south-SE edge-east-EN edge-north-NW edge-west-EW"/>
    </vehicle>
    <vehicle id="car_type_4-flow-route-edge-west-WE_0_random-edge-east-WE_0_random--5905405562819648963---9012035525807560136--3-3.0" type="actor-car_type_4-4792252494311387282" depart="0.00" departLane="0" departPos="random" departSpeed="max" arrivalLane="0" arrivalPos="random">
        <route edges="edge-west-WE edge-west-WS edge-south-SE edge-east-WE"/>
    </vehicle>
    <vehicle id="car_type_4-flow-route-edge-west-WE_0_random-edge-north-SN_0_random--4034857803880933133---9012035525807560136--5-3.0" type="actor-car_type_4-4792252494311387282" depart="0.00" departLane="0" departPos="random" departSpeed="max" arrivalLane="0" arrivalPos="random">
        <route edges="edge-west-WE edge-west-WS edge-south-SE edge-east-EN edge-north-SN"/>
    </vehicle>
    <vehicle id="car_type_4-flow-route-edge-west-WE_0_random-edge-south-NS_0_random-5050240295409023071---9012035525807560136--4-3.0" type="actor-car_type_4-4792252494311387282" depart="0.00" departLane="0" departPos="random" departSpeed="max" arrivalLane="0" arrivalPos="random">
        <route edges="edge-west-WE edge-west-WS edge-south-NS"/>
    </vehicle>
    <vType id="actor-car_type_5-7517202997496672160" minGap="3.99" maxSpeed="55.50" speedFactor="normc(0.96,0.10,0.20,2.00)" vClass="passenger" impatience="0.64" lcCooperative="0.7148661860984619" lcSpeedGain="1.9723007426586863" lcImpatience="0.711327012452526" jmIgnoreFoeProb="0.8484248580458242" accel="2.6" decel="4.5" sigma="0.35052330900624623"/>
    <vehicle id="car_type_5-flow-route-edge-east-EN_1_random-edge-south-NS_0_random-2869321101968521312---9012035525807560136--9-4.0" type="actor-car_type_5-7517202997496672160" depart="0.00" departLane="1" departPos="random" departSpeed="max" arrivalLane="0" arrivalPos="random">
        <route edges="edge-east-EN edge-north-NW edge-west-WS edge-south-NS"/>
    </vehicle>
    <vehicle id="car_type_5-flow-route-edge-north-NS_0_random-edge-east-WE_0_random-1024225989189090795---9012035525807560136--6-4.0" type="actor-car_type_5-7517202997496672160" depart="0.00" departLane="0" departPos="random" departSpeed="max" arrivalLane="0" arrivalPos="random">
        <route edges="edge-north-NS edge-north-NW edge-west-WS edge-south-SE edge-east-WE"/>
    </vehicle>
    <vehicle id="car_type_5-flow-route-edge-north-NS_0_random-edge-south-NS_0_random-5884962658851547761---9012035525807560136--7-4.0" type="actor-car_type_5-7517202997496672160" depart="0.00" departLane="0" departPos="random" departSpeed="max" arrivalLane="0" arrivalPos="random">
        <route edges="edge-north-NS edge-north-NW edge-west-WS edge-south-NS"/>
    </vehicle>
    <vehicle id="car_type_5-flow-route-edge-north-NS_0_random-edge-west-EW_0_random-3497666692637715606---9012035525807560136--8-4.0" type="actor-car_type_5-7517202997496672160" depart="0.00" departLane="0" departPos="random" departSpeed="max" arrivalLane="0" arrivalPos="random">
        <route edges="edge-north-NS edge-north-NW edge-west-EW"/>
    </vehicle>
    <vehicle id="car_type_5-flow-route-edge-south-SN_0_random-edge-east-WE_0_random-5313510630307015898---9012035525807560136--0-4.0" type="actor-car_type_5-7517202997496672160" depart="0.00" departLane="0" departPos="random" departSpeed="max" arrivalLane="0" arrivalPos="random">
        <route edges="edge-south-SN edge-south-SE edge-east-WE"/>
    </vehicle>
    <vehicle id="car_type_5-flow-route-edge-south-SN_0_random-edge-north-SN_0_random--8320095762011564436---9012035525807560136--2-4.0" type="actor-car_type_5-7517202997496672160" depart="0.00" departLane="0" departPos="random" departSpeed="max" arrivalLane="0" arrivalPos="random">
        <route edges="edge-south-SN edge-south-SE edge-east-EN edge-north-SN"/>
    </vehicle>
    <vehicle id="car_type_5-flow-route-edge-south-SN_0_random-edge-west-EW_0_random-4255269262314118599---9012035525807560136--1-4.0" type="actor-car_type_5-7517202997496672160" depart="0.00" departLane="0" departPos="random" departSpeed="max" arrivalLane="0" arrivalPos="random">
        <route edges="edge-south-SN edge-south-SE edge-east-EN edge-north-NW edge-west-EW"/>
    </vehicle>
    <vehicle id="car_type_5-flow-route-edge-west-WE_0_random-edge-east-WE_0_random--5905405562819648963---9012035525807560136--3-4.0" type="actor-car_type_5-7517202997496672160" depart="0.00" departLane="0" departPos="random" departSpeed="max" arrivalLane="0" arrivalPos="random">
        <route edges="edge-west-WE edge-west-WS edge-south-SE edge-east-WE"/>
    </vehicle>
    <vehicle id="car_type_5-flow-route-edge-west-WE_0_random-edge-north-SN_0_random--4034857803880933133---9012035525807560136--5-4.0" type="actor-car_type_5-7517202997496672160" depart="0.00" departLane="0" departPos="random" departSpeed="max" arrivalLane="0" arrivalPos="random">
        <route edges="edge-west-WE edge-west-WS edge-south-SE edge-east-EN edge-north-SN"/>
    </vehicle>
    <vehicle id="car_type_5-flow-route-edge-west-WE_0_random-edge-south-NS_0_random-5050240295409023071---9012035525807560136--4-4.0" type="actor-car_type_5-7517202997496672160" depart="0.00" departLane="0" departPos="random" departSpeed="max" arrivalLane="0" arrivalPos="random">
        <route edges="edge-west-WE edge-west-WS edge-south-NS"/>
    </vehicle>
    <vType id="actor-car_type_6-1268031957788256883" minGap="2.62" maxSpeed="55.50" speedFactor="normc(0.63,0.10,0.20,2.00)" vClass="passenger" impatience="0.64" lcCooperative="0.9729890730709885" lcSpeedGain="1.9112004304555268" lcImpatience="0.035935051550971986" jmIgnoreFoeProb="0.6962481594704413" accel="2.6" decel="4.5" sigma="0.4771792927893559"/>
    <vehicle id="car_type_6-flow-route-edge-east-EN_1_random-edge-south-NS_0_random-2869321101968521312---9012035525807560136--9-5.0" type="actor-car_type_6-1268031957788256883" depart="0.00" departLane="1" departPos="random" departSpeed="max" arrivalLane="0" arrivalPos="random">
        <route edges="edge-east-EN edge-north-NW edge-west-WS edge-south-NS"/>
    </vehicle>
    <vehicle id="car_type_6-flow-route-edge-north-NS_0_random-edge-east-WE_0_random-1024225989189090795---9012035525807560136--6-5.0" type="actor-car_type_6-1268031957788256883" depart="0.00" departLane="0" departPos="random" departSpeed="max" arrivalLane="0" arrivalPos="random">
        <route edges="edge-north-NS edge-north-NW edge-west-WS edge-south-SE edge-east-WE"/>
    </vehicle>
    <vehicle id="car_type_6-flow-route-edge-north-NS_0_random-edge-south-NS_0_random-5884962658851547761---9012035525807560136--7-5.0" type="actor-car_type_6-1268031957788256883" depart="0.00" departLane="0" departPos="random" departSpeed="max" arrivalLane="0" arrivalPos="random">
        <route edges="edge-north-NS edge-north-NW edge-west-WS edge-south-NS"/>
    </vehicle>
    <vehicle id="car_type_6-flow-route-edge-north-NS_0_random-edge-west-EW_0_random-3497666692637715606---9012035525807560136--8-5.0" type="actor-car_type_6-1268031957788256883" depart="0.00" departLane="0" departPos="random" departSpeed="max" arrivalLane="0" arrivalPos="random">
        <route edges="edge-north-NS edge-north-NW edge-west-EW"/>
    </vehicle>
    <vehicle id="car_type_6-flow-route-edge-south-SN_0_random-edge-east-WE_0_random-5313510630307015898---9012035525807560136--0-5.0" type="actor-car_type_6-1268031957788256883" depart="0.00" departLane="0" departPos="random" departSpeed="max" arrivalLane="0" arrivalPos="random">
        <route edges="edge-south-SN edge-south-SE edge-east-WE"/>
    </vehicle>
    <vehicle id="car_type_6-flow-route-edge-south-SN_0_random-edge-north-SN_0_random--8320095762011564436---9012035525807560136--2-5.0" type="actor-car_type_6-1268031957788256883" depart="0.00" departLane="0" departPos="random" departSpeed="max" arrivalLane="0" arrivalPos="random">
        <route edges="edge-south-SN edge-south-SE edge-east-EN edge-north-SN"/>
    </vehicle>
    <vehicle id="car_type_6-flow-route-edge-south-SN_0_random-edge-west-EW_0_random-4255269262314118599---9012035525807560136--1-5.0" type="actor-car_type_6-1268031957788256883" depart="0.00" departLane="0" departPos="random" departSpeed="max" arrivalLane="0" arrivalPos="random">
        <route edges="edge-south-SN edge-south-SE edge-east-EN edge-north-NW edge-west-EW"/>
    </vehicle>
    <vehicle id="car_type_6-flow-route-edge-west-WE_0_random-edge-east-WE_0_random--5905405562819648963---9012035525807560136--3-5.0" type="actor-car_type_6-1268031957788256883" depart="0.00" departLane="0" departPos="random" departSpeed="max" arrivalLane="0" arrivalPos="random">
        <route edges="edge-west-WE edge-west-WS edge-south-SE edge-east-WE"/>
    </vehicle>
    <vehicle id="car_type_6-flow-route-edge-west-WE_0_random-edge-north-SN_0_random--4034857803880933133---9012035525807560136--5-5.0" type="actor-car_type_6-1268031957788256883" depart="0.00" departLane="0" departPos="random" departSpeed="max" arrivalLane="0" arrivalPos="random">
        <route edges="edge-west-WE edge-west-WS edge-south-SE edge-east-EN edge-north-SN"/>
    </vehicle>
    <vehicle id="car_type_6-flow-route-edge-west-WE_0_random-edge-south-NS_0_random-5050240295409023071---9012035525807560136--4-5.0" type="actor-car_type_6-1268031957788256883" depart="0.00" departLane="0" departPos="random" departSpeed="max" arrivalLane="0" arrivalPos="random">
        <route edges="edge-west-WE edge-west-WS edge-south-NS"/>
    </vehicle>
    <vehicle id="car_type_1-flow-route-edge-east-EN_1_random-edge-south-NS_0_random-2869321101968521312---9012035525807560136--9-0.1" type="actor-car_type_1-4681268210671173236" depart="216.00" departLane="1" departPos="random" departSpeed="max" arrivalLane="0" arrivalPos="random">
        <route edges="edge-east-EN edge-north-NW edge-west-WS edge-south-NS"/>
    </vehicle>
    <vehicle id="car_type_1-flow-route-edge-north-NS_0_random-edge-east-WE_0_random-1024225989189090795---9012035525807560136--6-0.1" type="actor-car_type_1-4681268210671173236" depart="216.00" departLane="0" departPos="random" departSpeed="max" arrivalLane="0" arrivalPos="random">
        <route edges="edge-north-NS edge-north-NW edge-west-WS edge-south-SE edge-east-WE"/>
    </vehicle>
    <vehicle id="car_type_1-flow-route-edge-north-NS_0_random-edge-south-NS_0_random-5884962658851547761---9012035525807560136--7-0.1" type="actor-car_type_1-4681268210671173236" depart="216.00" departLane="0" departPos="random" departSpeed="max" arrivalLane="0" arrivalPos="random">
        <route edges="edge-north-NS edge-north-NW edge-west-WS edge-south-NS"/>
    </vehicle>
    <vehicle id="car_type_1-flow-route-edge-north-NS_0_random-edge-west-EW_0_random-3497666692637715606---9012035525807560136--8-0.1" type="actor-car_type_1-4681268210671173236" depart="216.00" departLane="0" departPos="random" departSpeed="max" arrivalLane="0" arrivalPos="random">
        <route edges="edge-north-NS edge-north-NW edge-west-EW"/>
    </vehicle>
    <vehicle id="car_type_1-flow-route-edge-south-SN_0_random-edge-east-WE_0_random-5313510630307015898---9012035525807560136--0-0.1" type="actor-car_type_1-4681268210671173236" depart="216.00" departLane="0" departPos="random" departSpeed="max" arrivalLane="0" arrivalPos="random">
        <route edges="edge-south-SN edge-south-SE edge-east-WE"/>
    </vehicle>
    <vehicle id="car_type_1-flow-route-edge-south-SN_0_random-edge-north-SN_0_random--8320095762011564436---9012035525807560136--2-0.1" type="actor-car_type_1-4681268210671173236" depart="216.00" departLane="0" departPos="random" departSpeed="max" arrivalLane="0" arrivalPos="random">
        <route edges="edge-south-SN edge-south-SE edge-east-EN edge-north-SN"/>
    </vehicle>
    <vehicle id="car_type_1-flow-route-edge-south-SN_0_random-edge-west-EW_0_random-4255269262314118599---9012035525807560136--1-0.1" type="actor-car_type_1-4681268210671173236" depart="216.00" departLane="0" departPos="random" departSpeed="max" arrivalLane="0" arrivalPos="random">
        <route edges="edge-south-SN edge-south-SE edge-east-EN edge-north-NW edge-west-EW"/>
    </vehicle>
    <vehicle id="car_type_1-flow-route-edge-west-WE_0_random-edge-east-WE_0_random--5905405562819648963---9012035525807560136--3-0.1" type="actor-car_type_1-4681268210671173236" depart="216.00" departLane="0" departPos="random" departSpeed="max" arrivalLane="0" arrivalPos="random">
        <route edges="edge-west-WE edge-west-WS edge-south-SE edge-east-WE"/>
    </vehicle>
    <vehicle id="car_type_1-flow-route-edge-west-WE_0_random-edge-north-SN_0_random--4034857803880933133---9012035525807560136--5-0.1" type="actor-car_type_1-4681268210671173236" depart="216.00" departLane="0" departPos="random" departSpeed="max" arrivalLane="0" arrivalPos="random">
        <route edges="edge-west-WE edge-west-WS edge-south-SE edge-east-EN edge-north-SN"/>
    </vehicle>
    <vehicle id="car_type_1-flow-route-edge-west-WE_0_random-edge-south-NS_0_random-5050240295409023071---9012035525807560136--4-0.1" type="actor-car_type_1-4681268210671173236" depart="216.00" departLane="0" departPos="random" departSpeed="max" arrivalLane="0" arrivalPos="random">
        <route edges="edge-west-WE edge-west-WS edge-south-NS"/>
    </vehicle>
    <vehicle id="car_type_2-flow-route-edge-east-EN_1_random-edge-south-NS_0_random-2869321101968521312---9012035525807560136--9-1.1" type="actor-car_type_2-8425280960043699506" depart="216.00" departLane="1" departPos="random" departSpeed="max" arrivalLane="0" arrivalPos="random">