<?xml version="1.0" encoding="UTF-8"?>

<!-- generated on 2021-10-23 11:46:11 by Eclipse SUMO duarouter Version 1.10.0
<configuration xmlns:xsi="http://www.w3.org/2001/XMLSchema-instance" xsi:noNamespaceSchemaLocation="http://sumo.dlr.de/xsd/duarouterConfiguration.xsd">

    <input>
        <net-file value="/home/automan/Project3/NNLS_R1/scenarios/roundabout/map.net.xml"/>
        <route-files value="/tmp/tmp6mj0wfrv/trips.trips.xml"/>
    </input>

    <output>
        <output-file value="/home/automan/Project3/NNLS_R1/scenarios/roundabout/traffic/traffic_16.rou.xml"/>
        <alternatives-output value="/home/automan/Project3/NNLS_R1/scenarios/roundabout/traffic/traffic_16.rou.alt.xml"/>
    </output>

    <processing>
        <unsorted-input value="true"/>
        <repair value="true"/>
    </processing>

    <report>
        <error-log value="/home/automan/.smarts/_duarouter_routing/traffic/traffic_16.log"/>
        <no-step-log value="true"/>
    </report>

    <random_number>
        <seed value="16"/>
    </random_number>

</configuration>
-->

<routes xmlns:xsi="http://www.w3.org/2001/XMLSchema-instance" xsi:noNamespaceSchemaLocation="http://sumo.dlr.de/xsd/routes_file.xsd">
    <vType id="actor-car_type_1-2159507744543430516" minGap="2.07" maxSpeed="55.50" speedFactor="normc(0.61,0.10,0.20,2.00)" vClass="passenger" impatience="0.15" lcCooperative="0.5763900768135305" lcSpeedGain="1.781541173407562" lcImpatience="0.9345973553753038" jmIgnoreFoeProb="0.1514102365855189" accel="2.6" decel="4.5" sigma="0.4045948129306706"/>
    <vehicle id="car_type_1-flow-route-edge-east-EN_1_random-edge-south-NS_0_random-2869321101968521312---7898902865195986991--9-0.0" type="actor-car_type_1-2159507744543430516" depart="0.00" departLane="1" departPos="random" departSpeed="max" arrivalLane="0" arrivalPos="random">
        <route edges="edge-east-EN edge-north-NW edge-west-WS edge-south-NS"/>
    </vehicle>
    <vehicle id="car_type_1-flow-route-edge-north-NS_0_random-edge-east-WE_0_random-1024225989189090795---7898902865195986991--6-0.0" type="actor-car_type_1-2159507744543430516" depart="0.00" departLane="0" departPos="random" departSpeed="max" arrivalLane="0" arrivalPos="random">
        <route edges="edge-north-NS edge-north-NW edge-west-WS edge-south-SE edge-east-WE"/>
    </vehicle>
    <vehicle id="car_type_1-flow-route-edge-north-NS_0_random-edge-south-NS_0_random-5884962658851547761---7898902865195986991--7-0.0" type="actor-car_type_1-2159507744543430516" depart="0.00" departLane="0" departPos="random" departSpeed="max" arrivalLane="0" arrivalPos="random">
        <route edges="edge-north-NS edge-north-NW edge-west-WS edge-south-NS"/>
    </vehicle>
    <vehicle id="car_type_1-flow-route-edge-north-NS_0_random-edge-west-EW_0_random-3497666692637715606---7898902865195986991--8-0.0" type="actor-car_type_1-2159507744543430516" depart="0.00" departLane="0" departPos="random" departSpeed="max" arrivalLane="0" arrivalPos="random">
        <route edges="edge-north-NS edge-north-NW edge-west-EW"/>
    </vehicle>
    <vehicle id="car_type_1-flow-route-edge-south-SN_0_random-edge-east-WE_0_random-5313510630307015898---7898902865195986991--0-0.0" type="actor-car_type_1-2159507744543430516" depart="0.00" departLane="0" departPos="random" departSpeed="max" arrivalLane="0" arrivalPos="random">
        <route edges="edge-south-SN edge-south-SE edge-east-WE"/>
    </vehicle>
    <vehicle id="car_type_1-flow-route-edge-south-SN_0_random-edge-north-SN_0_random--8320095762011564436---7898902865195986991--2-0.0" type="actor-car_type_1-2159507744543430516" depart="0.00" departLane="0" departPos="random" departSpeed="max" arrivalLane="0" arrivalPos="random">
        <route edges="edge-south-SN edge-south-SE edge-east-EN edge-north-SN"/>
    </vehicle>
    <vehicle id="car_type_1-flow-route-edge-south-SN_0_random-edge-west-EW_0_random-4255269262314118599---7898902865195986991--1-0.0" type="actor-car_type_1-2159507744543430516" depart="0.00" departLane="0" departPos="random" departSpeed="max" arrivalLane="0" arrivalPos="random">
        <route edges="edge-south-SN edge-south-SE edge-east-EN edge-north-NW edge-west-EW"/>
    </vehicle>
    <vehicle id="car_type_1-flow-route-edge-west-WE_0_random-edge-east-WE_0_random--5905405562819648963---7898902865195986991--3-0.0" type="actor-car_type_1-2159507744543430516" depart="0.00" departLane="0" departPos="random" departSpeed="max" arrivalLane="0" arrivalPos="random">
        <route edges="edge-west-WE edge-west-WS edge-south-SE edge-east-WE"/>
    </vehicle>
    <vehicle id="car_type_1-flow-route-edge-west-WE_0_random-edge-north-SN_0_random--4034857803880933133---7898902865195986991--5-0.0" type="actor-car_type_1-2159507744543430516" depart="0.00" departLane="0" departPos="random" departSpeed="max" arrivalLane="0" arrivalPos="random">
        <route edges="edge-west-WE edge-west-WS edge-south-SE edge-east-EN edge-north-SN"/>
    </vehicle>
    <vehicle id="car_type_1-flow-route-edge-west-WE_0_random-edge-south-NS_0_random-5050240295409023071---7898902865195986991--4-0.0" type="actor-car_type_1-2159507744543430516" depart="0.00" departLane="0" departPos="random" departSpeed="max" arrivalLane="0" arrivalPos="random">
        <route edges="edge-west-WE edge-west-WS edge-south-NS"/>
    </vehicle>
    <vType id="actor-car_type_2--5504029626645479758" minGap="2.78" maxSpeed="55.50" speedFactor="normc(0.84,0.10,0.20,2.00)" vClass="passenger" impatience="0.57" lcCooperative="0.7944204610026284" lcSpeedGain="1.564418714569563" lcImpatience="0.536308591643555" jmIgnoreFoeProb="0.7421631586878653" accel="2.6" decel="4.5" sigma="0.33718616703582643"/>
    <vehicle id="car_type_2-flow-route-edge-east-EN_1_random-edge-south-NS_0_random-2869321101968521312---7898902865195986991--9-1.0" type="actor-car_type_2--5504029626645479758" depart="0.00" departLane="1" departPos="random" departSpeed="max" arrivalLane="0" arrivalPos="random">
        <route edges="edge-east-EN edge-north-NW edge-west-WS edge-south-NS"/>
    </vehicle>
    <vehicle id="car_type_2-flow-route-edge-north-NS_0_random-edge-east-WE_0_random-1024225989189090795---7898902865195986991--6-1.0" type="actor-car_type_2--5504029626645479758" depart="0.00" departLane="0" departPos="random" departSpeed="max" arrivalLane="0" arrivalPos="random">
        <route edges="edge-north-NS edge-north-NW edge-west-WS edge-south-SE edge-east-WE"/>
    </vehicle>
    <vehicle id="car_type_2-flow-route-edge-north-NS_0_random-edge-south-NS_0_random-5884962658851547761---7898902865195986991--7-1.0" type="actor-car_type_2--5504029626645479758" depart="0.00" departLane="0" departPos="random" departSpeed="max" arrivalLane="0" arrivalPos="random">
        <route edges="edge-north-NS edge-north-NW edge-west-WS edge-south-NS"/>
    </vehicle>
    <vehicle id="car_type_2-flow-route-edge-north-NS_0_random-edge-west-EW_0_random-3497666692637715606---7898902865195986991--8-1.0" type="actor-car_type_2--5504029626645479758" depart="0.00" departLane="0" departPos="random" departSpeed="max" arrivalLane="0" arrivalPos="random">
        <route edges="edge-north-NS edge-north-NW edge-west-EW"/>
    </vehicle>
    <vehicle id="car_type_2-flow-route-edge-south-SN_0_random-edge-east-WE_0_random-5313510630307015898---7898902865195986991--0-1.0" type="actor-car_type_2--5504029626645479758" depart="0.00" departLane="0" departPos="random" departSpeed="max" arrivalLane="0" arrivalPos="random">
        <route edges="edge-south-SN edge-south-SE edge-east-WE"/>
    </vehicle>
    <vehicle id="car_type_2-flow-route-edge-south-SN_0_random-edge-north-SN_0_random--8320095762011564436---7898902865195986991--2-1.0" type="actor-car_type_2--5504029626645479758" depart="0.00" departLane="0" departPos="random" departSpeed="max" arrivalLane="0" arrivalPos="random">
        <route edges="edge-south-SN edge-south-SE edge-east-EN edge-north-SN"/>
    </vehicle>
    <vehicle id="car_type_2-flow-route-edge-south-SN_0_random-edge-west-EW_0_random-4255269262314118599---7898902865195986991--1-1.0" type="actor-car_type_2--5504029626645479758" depart="0.00" departLane="0" departPos="random" departSpeed="max" arrivalLane="0" arrivalPos="random">
        <route edges="edge-south-SN edge-south-SE edge-east-EN edge-north-NW edge-west-EW"/>
    </vehicle>
    <vehicle id="car_type_2-flow-route-edge-west-WE_0_random-edge-east-WE_0_random--5905405562819648963---7898902865195986991--3-1.0" type="actor-car_type_2--5504029626645479758" depart="0.00" departLane="0" departPos="random" departSpeed="max" arrivalLane="0" arrivalPos="random">
        <route edges="edge-west-WE edge-west-WS edge-south-SE edge-east-WE"/>
    </vehicle>
    <vehicle id="car_type_2-flow-route-edge-west-WE_0_random-edge-north-SN_0_random--4034857803880933133---7898902865195986991--5-1.0" type="actor-car_type_2--5504029626645479758" depart="0.00" departLane="0" departPos="random" departSpeed="max" arrivalLane="0" arrivalPos="random">
        <route edges="edge-west-WE edge-west-WS edge-south-SE edge-east-EN edge-north-SN"/>
    </vehicle>
    <vehicle id="car_type_2-flow-route-edge-west-WE_0_random-edge-south-NS_0_random-5050240295409023071---7898902865195986991--4-1.0" type="actor-car_type_2--5504029626645479758" depart="0.00" departLane="0" departPos="random" departSpeed="max" arrivalLane="0" arrivalPos="random">
        <route edges="edge-west-WE edge-west-WS edge-south-NS"/>
    </vehicle>
    <vType id="actor-car_type_3-5152800099482579709" minGap="3.73" maxSpeed="55.50" speedFactor="normc(0.80,0.10,0.20,2.00)" vClass="passenger" impatience="0.12" lcCooperative="0.20007745925346476" lcSpeedGain="1.4651682664981278" lcImpatience="0.20799056540116734" jmIgnoreFoeProb="0.9085108249156879" accel="2.6" decel="4.5" sigma="0.3034841153865705"/>
    <vehicle id="car_type_3-flow-route-edge-east-EN_1_random-edge-south-NS_0_random-2869321101968521312---7898902865195986991--9-2.0" type="actor-car_type_3-5152800099482579709" depart="0.00" departLane="1" departPos="random" departSpeed="max" arrivalLane="0" arrivalPos="random">
        <route edges="edge-east-EN edge-north-NW edge-west-WS edge-south-NS"/>
    </vehicle>
    <vehicle id="car_type_3-flow-route-edge-north-NS_0_random-edge-east-WE_0_random-1024225989189090795---7898902865195986991--6-2.0" type="actor-car_type_3-5152800099482579709" depart="0.00" departLane="0" departPos="random" departSpeed="max" arrivalLane="0" arrivalPos="random">
        <route edges="edge-north-NS edge-north-NW edge-west-WS edge-south-SE edge-east-WE"/>
    </vehicle>
    <vehicle id="car_type_3-flow-route-edge-north-NS_0_random-edge-south-NS_0_random-5884962658851547761---7898902865195986991--7-2.0" type="actor-car_type_3-5152800099482579709" depart="0.00" departLane="0" departPos="random" departSpeed="max" arrivalLane="0" arrivalPos="random">
        <route edges="edge-north-NS edge-north-NW edge-west-WS edge-south-NS"/>
    </vehicle>
    <vehicle id="car_type_3-flow-route-edge-north-NS_0_random-edge-west-EW_0_random-3497666692637715606---7898902865195986991--8-2.0" type="actor-car_type_3-5152800099482579709" depart="0.00" departLane="0" departPos="random" departSpeed="max" arrivalLane="0" arrivalPos="random">
        <route edges="edge-north-NS edge-north-NW edge-west-EW"/>
    </vehicle>
    <vehicle id="car_type_3-flow-route-edge-south-SN_0_random-edge-east-WE_0_random-5313510630307015898---7898902865195986991--0-2.0" type="actor-car_type_3-5152800099482579709" depart="0.00" departLane="0" departPos="random" departSpeed="max" arrivalLane="0" arrivalPos="random">
        <route edges="edge-south-SN edge-south-SE edge-east-WE"/>
    </vehicle>
    <vehicle id="car_type_3-flow-route-edge-south-SN_0_random-edge-north-SN_0_random--8320095762011564436---7898902865195986991--2-2.0" type="actor-car_type_3-5152800099482579709" depart="0.00" departLane="0" departPos="random" departSpeed="max" arrivalLane="0" arrivalPos="random">
        <route edges="edge-south-SN edge-south-SE edge-east-EN edge-north-SN"/>
    </vehicle>
    <vehicle id="car_type_3-flow-route-edge-south-SN_0_random-edge-west-EW_0_random-4255269262314118599---7898902865195986991--1-2.0" type="actor-car_type_3-5152800099482579709" depart="0.00" departLane="0" departPos="random" departSpeed="max" arrivalLane="0" arrivalPos="random">
        <route edges="edge-south-SN edge-south-SE edge-east-EN edge-north-NW edge-west-EW"/>
    </vehicle>
    <vehicle id="car_type_3-flow-route-edge-west-WE_0_random-edge-east-WE_0_random--5905405562819648963---7898902865195986991--3-2.0" type="actor-car_type_3-5152800099482579709" depart="0.00" departLane="0" departPos="random" departSpeed="max" arrivalLane="0" arrivalPos="random">
        <route edges="edge-west-WE edge-west-WS edge-south-SE edge-east-WE"/>
    </vehicle>
    <vehicle id="car_type_3-flow-route-edge-west-WE_0_random-edge-north-SN_0_random--4034857803880933133---7898902865195986991--5-2.0" type="actor-car_type_3-5152800099482579709" depart="0.00" departLane="0" departPos="random" departSpeed="max" arrivalLane="0" arrivalPos="random">
        <route edges="edge-west-WE edge-west-WS edge-south-SE edge-east-EN edge-north-SN"/>
    </vehicle>
    <vehicle id="car_type_3-flow-route-edge-west-WE_0_random-edge-south-NS_0_random-5050240295409023071---7898902865195986991--4-2.0" type="actor-car_type_3-5152800099482579709" depart="0.00" departLane="0" departPos="random" departSpeed="max" arrivalLane="0" arrivalPos="random">
        <route edges="edge-west-WE edge-west-WS edge-south-NS"/>
    </vehicle>
    <vType id="actor-car_type_4--1406567709910753561" minGap="3.54" maxSpeed="55.50" speedFactor="normc(0.90,0.10,0.20,2.00)" vClass="passenger" impatience="0.60" lcCooperative="0.3714703156590323" lcSpeedGain="1.539666929495743" lcImpatience="0.684675742345117" jmIgnoreFoeProb="0.03503815235005414" accel="2.6" decel="4.5" sigma="0.43612897816224205"/>
    <vehicle id="car_type_4-flow-route-edge-east-EN_1_random-edge-south-NS_0_random-2869321101968521312---7898902865195986991--9-3.0" type="actor-car_type_4--1406567709910753561" depart="0.00" departLane="1" departPos="random" departSpeed="max" arrivalLane="0" arrivalPos="random">
        <route edges="edge-east-EN edge-north-NW edge-west-WS edge-south-NS"/>
    </vehicle>
    <vehicle id="car_type_4-flow-route-edge-north-NS_0_random-edge-east-WE_0_random-1024225989189090795---7898902865195986991--6-3.0" type="actor-car_type_4--1406567709910753561" depart="0.00" departLane="0" departPos="random" departSpeed="max" arrivalLane="0" arrivalPos="random">
        <route edges="edge-north-NS edge-north-NW edge-west-WS edge-south-SE edge-east-WE"/>
    </vehicle>
    <vehicle id="car_type_4-flow-route-edge-north-NS_0_random-edge-south-NS_0_random-5884962658851547761---7898902865195986991--7-3.0" type="actor-car_type_4--1406567709910753561" depart="0.00" departLane="0" departPos="random" departSpeed="max" arrivalLane="0" arrivalPos="random">
        <route edges="edge-north-NS edge-north-NW edge-west-WS edge-south-NS"/>
    </vehicle>
    <vehicle id="car_type_4-flow-route-edge-north-NS_0_random-edge-west-EW_0_random-3497666692637715606---7898902865195986991--8-3.0" type="actor-car_type_4--1406567709910753561" depart="0.00" departLane="0" departPos="random" departSpeed="max" arrivalLane="0" arrivalPos="random">
        <route edges="edge-north-NS edge-north-NW edge-west-EW"/>
    </vehicle>
    <vehicle id="car_type_4-flow-route-edge-south-SN_0_random-edge-east-WE_0_random-5313510630307015898---7898902865195986991--0-3.0" type="actor-car_type_4--1406567709910753561" depart="0.00" departLane="0" departPos="random" departSpeed="max" arrivalLane="0" arrivalPos="random">
        <route edges="edge-south-SN edge-south-SE edge-east-WE"/>
    </vehicle>
    <vehicle id="car_type_4-flow-route-edge-south-SN_0_random-edge-north-SN_0_random--8320095762011564436---7898902865195986991--2-3.0" type="actor-car_type_4--1406567709910753561" depart="0.00" departLane="0" departPos="random" departSpeed="max" arrivalLane="0" arrivalPos="random">
        <route edges="edge-south-SN edge-south-SE edge-east-EN edge-north-SN"/>
    </vehicle>
    <vehicle id="car_type_4-flow-route-edge-south-SN_0_random-edge-west-EW_0_random-4255269262314118599---7898902865195986991--1-3.0" type="actor-car_type_4--1406567709910753561" depart="0.00" departLane="0" departPos="random" departSpeed="max" arrivalLane="0" arrivalPos="random">
        <route edges="edge-south-SN edge-south-SE edge-east-EN edge-north-NW edge-west-EW"/>
    </vehicle>
    <vehicle id="car_type_4-flow-route-edge-west-WE_0_random-edge-east-WE_0_random--5905405562819648963---7898902865195986991--3-3.0" type="actor-car_type_4--1406567709910753561" depart="0.00" departLane="0" departPos="random" departSpeed="max" arrivalLane="0" arrivalPos="random">
        <route edges="edge-west-WE edge-west-WS edge-south-SE edge-east-WE"/>
    </vehicle>
    <vehicle id="car_type_4-flow-route-edge-west-WE_0_random-edge-north-SN_0_random--4034857803880933133---7898902865195986991--5-3.0" type="actor-car_type_4--1406567709910753561" depart="0.00" departLane="0" departPos="random" departSpeed="max" arrivalLane="0" arrivalPos="random">
        <route edges="edge-west-WE edge-west-WS edge-south-SE edge-east-EN edge-north-SN"/>
    </vehicle>
    <vehicle id="car_type_4-flow-route-edge-west-WE_0_random-edge-south-NS_0_random-5050240295409023071---7898902865195986991--4-3.0" type="actor-car_type_4--1406567709910753561" depart="0.00" departLane="0" departPos="random" departSpeed="max" arrivalLane="0" arrivalPos="random">
        <route edges="edge-west-WE edge-west-WS edge-south-NS"/>
    </vehicle>
    <vType id="actor-car_type_5--1735774876907402464" minGap="3.52" maxSpeed="55.50" speedFactor="normc(0.80,0.10,0.20,2.00)" vClass="passenger" impatience="0.89" lcCooperative="0.20952936687080792" lcSpeedGain="1.7568950826323566" lcImpatience="0.46303958559568303" jmIgnoreFoeProb="0.6905697931076421" accel="2.6" decel="4.5" sigma="0.43166619913804655"/>
    <vehicle id="car_type_5-flow-route-edge-east-EN_1_random-edge-south-NS_0_random-2869321101968521312---7898902865195986991--9-4.0" type="actor-car_type_5--1735774876907402464" depart="0.00" departLane="1" departPos="random" departSpeed="max" arrivalLane="0" arrivalPos="random">
        <route edges="edge-east-EN edge-north-NW edge-west-WS edge-south-NS"/>
    </vehicle>
    <vehicle id="car_type_5-flow-route-edge-north-NS_0_random-edge-east-WE_0_random-1024225989189090795---7898902865195986991--6-4.0" type="actor-car_type_5--1735774876907402464" depart="0.00" departLane="0" departPos="random" departSpeed="max" arrivalLane="0" arrivalPos="random">
        <route edges="edge-north-NS edge-north-NW edge-west-WS edge-south-SE edge-east-WE"/>
    </vehicle>
    <vehicle id="car_type_5-flow-route-edge-north-NS_0_random-edge-south-NS_0_random-5884962658851547761---7898902865195986991--7-4.0" type="actor-car_type_5--1735774876907402464" depart="0.00" departLane="0" departPos="random" departSpeed="max" arrivalLane="0" arrivalPos="random">
        <route edges="edge-north-NS edge-north-NW edge-west-WS edge-south-NS"/>
    </vehicle>
    <vehicle id="car_type_5-flow-route-edge-north-NS_0_random-edge-west-EW_0_random-3497666692637715606---7898902865195986991--8-4.0" type="actor-car_type_5--1735774876907402464" depart="0.00" departLane="0" departPos="random" departSpeed="max" arrivalLane="0" arrivalPos="random">
        <route edges="edge-north-NS edge-north-NW edge-west-EW"/>
    </vehicle>
    <vehicle id="car_type_5-flow-route-edge-south-SN_0_random-edge-east-WE_0_random-5313510630307015898---7898902865195986991--0-4.0" type="actor-car_type_5--1735774876907402464" depart="0.00" departLane="0" departPos="random" departSpeed="max" arrivalLane="0" arrivalPos="random">
        <route edges="edge-south-SN edge-south-SE edge-east-WE"/>
    </vehicle>
    <vehicle id="car_type_5-flow-route-edge-south-SN_0_random-edge-north-SN_0_random--8320095762011564436---7898902865195986991--2-4.0" type="actor-car_type_5--1735774876907402464" depart="0.00" departLane="0" departPos="random" departSpeed="max" arrivalLane="0" arrivalPos="random">
        <route edges="edge-south-SN edge-south-SE edge-east-EN edge-north-SN"/>
    </vehicle>
    <vehicle id="car_type_5-flow-route-edge-south-SN_0_random-edge-west-EW_0_random-4255269262314118599---7898902865195986991--1-4.0" type="actor-car_type_5--1735774876907402464" depart="0.00" departLane="0" departPos="random" departSpeed="max" arrivalLane="0" arrivalPos="random">
        <route edges="edge-south-SN edge-south-SE edge-east-EN edge-north-NW edge-west-EW"/>
    </vehicle>
    <vehicle id="car_type_5-flow-route-edge-west-WE_0_random-edge-east-WE_0_random--5905405562819648963---7898902865195986991--3-4.0" type="actor-car_type_5--1735774876907402464" depart="0.00" departLane="0" departPos="random" departSpeed="max" arrivalLane="0" arrivalPos="random">
        <route edges="edge-west-WE edge-west-WS edge-south-SE edge-east-WE"/>
    </vehicle>
    <vehicle id="car_type_5-flow-route-edge-west-WE_0_random-edge-north-SN_0_random--4034857803880933133---7898902865195986991--5-4.0" type="actor-car_type_5--1735774876907402464" depart="0.00" departLane="0" departPos="random" departSpeed="max" arrivalLane="0" arrivalPos="random">
        <route edges="edge-west-WE edge-west-WS edge-south-SE edge-east-EN edge-north-SN"/>
    </vehicle>
    <vehicle id="car_type_5-flow-route-edge-west-WE_0_random-edge-south-NS_0_random-5050240295409023071---7898902865195986991--4-4.0" type="actor-car_type_5--1735774876907402464" depart="0.00" departLane="0" departPos="random" departSpeed="max" arrivalLane="0" arrivalPos="random">
        <route edges="edge-west-WE edge-west-WS edge-south-NS"/>
    </vehicle>
    <vType id="actor-car_type_6-7778300857015037710" minGap="3.12" maxSpeed="55.50" speedFactor="normc(0.72,0.10,0.20,2.00)" vClass="passenger" impatience="0.75" lcCooperative="0.8535142113154135" lcSpeedGain="1.1348624490158705" lcImpatience="0.5734204243083929" jmIgnoreFoeProb="0.08100207526513592" accel="2.6" decel="4.5" sigma="0.450922565535137"/>
    <vehicle id="car_type_6-flow-route-edge-east-EN_1_random-edge-south-NS_0_random-2869321101968521312---7898902865195986991--9-5.0" type="actor-car_type_6-7778300857015037710" depart="0.00" departLane="1" departPos="random" departSpeed="max" arrivalLane="0" arrivalPos="random">
        <route edges="edge-east-EN edge-north-NW edge-west-WS edge-south-NS"/>
    </vehicle>
    <vehicle id="car_type_6-flow-route-edge-north-NS_0_random-edge-east-WE_0_random-1024225989189090795---7898902865195986991--6-5.0" type="actor-car_type_6-7778300857015037710" depart="0.00" departLane="0" departPos="random" departSpeed="max" arrivalLane="0" arrivalPos="random">
        <route edges="edge-north-NS edge-north-NW edge-west-WS edge-south-SE edge-east-WE"/>
    </vehicle>
    <vehicle id="car_type_6-flow-route-edge-north-NS_0_random-edge-south-NS_0_random-5884962658851547761---7898902865195986991--7-5.0" type="actor-car_type_6-7778300857015037710" depart="0.00" departLane="0" departPos="random" departSpeed="max" arrivalLane="0" arrivalPos="random">
        <route edges="edge-north-NS edge-north-NW edge-west-WS edge-south-NS"/>
    </vehicle>
    <vehicle id="car_type_6-flow-route-edge-north-NS_0_random-edge-west-EW_0_random-3497666692637715606---7898902865195986991--8-5.0" type="actor-car_type_6-7778300857015037710" depart="0.00" departLane="0" departPos="random" departSpeed="max" arrivalLane="0" arrivalPos="random">
        <route edges="edge-north-NS edge-north-NW edge-west-EW"/>
    </vehicle>
    <vehicle id="car_type_6-flow-route-edge-south-SN_0_random-edge-east-WE_0_random-5313510630307015898---7898902865195986991--0-5.0" type="actor-car_type_6-7778300857015037710" depart="0.00" departLane="0" departPos="random" departSpeed="max" arrivalLane="0" arrivalPos="random">
        <route edges="edge-south-SN edge-south-SE edge-east-WE"/>
    </vehicle>
    <vehicle id="car_type_6-flow-route-edge-south-SN_0_random-edge-north-SN_0_random--8320095762011564436---7898902865195986991--2-5.0" type="actor-car_type_6-7778300857015037710" depart="0.00" departLane="0" departPos="random" departSpeed="max" arrivalLane="0" arrivalPos="random">
        <route edges="edge-south-SN edge-south-SE edge-east-EN edge-north-SN"/>
    </vehicle>
    <vehicle id="car_type_6-flow-route-edge-south-SN_0_random-edge-west-EW_0_random-4255269262314118599---7898902865195986991--1-5.0" type="actor-car_type_6-7778300857015037710" depart="0.00" departLane="0" departPos="random" departSpeed="max" arrivalLane="0" arrivalPos="random">
        <route edges="edge-south-SN edge-south-SE edge-east-EN edge-north-NW edge-west-EW"/>
    </vehicle>
    <vehicle id="car_type_6-flow-route-edge-west-WE_0_random-edge-east-WE_0_random--5905405562819648963---7898902865195986991--3-5.0" type="actor-car_type_6-7778300857015037710" depart="0.00" departLane="0" departPos="random" departSpeed="max" arrivalLane="0" arrivalPos="random">
        <route edges="edge-west-WE edge-west-WS edge-south-SE edge-east-WE"/>
    </vehicle>
    <vehicle id="car_type_6-flow-route-edge-west-WE_0_random-edge-north-SN_0_random--4034857803880933133---7898902865195986991--5-5.0" type="actor-car_type_6-7778300857015037710" depart="0.00" departLane="0" departPos="random" departSpeed="max" arrivalLane="0" arrivalPos="random">
        <route edges="edge-west-WE edge-west-WS edge-south-SE edge-east-EN edge-north-SN"/>
    </vehicle>
    <vehicle id="car_type_6-flow-route-edge-west-WE_0_random-edge-south-NS_0_random-5050240295409023071---7898902865195986991--4-5.0" type="actor-car_type_6-7778300857015037710" depart="0.00" departLane="0" departPos="random" departSpeed="max" arrivalLane="0" arrivalPos="random">
        <route edges="edge-west-WE edge-west-WS edge-south-NS"/>
    </vehicle>
    <vehicle id="car_type_1-flow-route-edge-east-EN_1_random-edge-south-NS_0_random-2869321101968521312---7898902865195986991--9-0.1" type="actor-car_type_1-2159507744543430516" depart="216.00" departLane="1" departPos="random" departSpeed="max" arrivalLane="0" arrivalPos="random">
        <route edges="edge-east-EN edge-north-NW edge-west-WS edge-south-NS"/>
    </vehicle>
    <vehicle id="car_type_1-flow-route-edge-north-NS_0_random-edge-east-WE_0_random-1024225989189090795---7898902865195986991--6-0.1" type="actor-car_type_1-2159507744543430516" depart="216.00" departLane="0" departPos="random" departSpeed="max" arrivalLane="0" arrivalPos="random">
        <route edges="edge-north-NS edge-north-NW edge-west-WS edge-south-SE edge-east-WE"/>
    </vehicle>
    <vehicle id="car_type_1-flow-route-edge-north-NS_0_random-edge-south-NS_0_random-5884962658851547761---7898902865195986991--7-0.1" type="actor-car_type_1-2159507744543430516" depart="216.00" departLane="0" departPos="random" departSpeed="max" arrivalLane="0" arrivalPos="random">
        <route edges="edge-north-NS edge-north-NW edge-west-WS edge-south-NS"/>
    </vehicle>
    <vehicle id="car_type_1-flow-route-edge-north-NS_0_random-edge-west-EW_0_random-3497666692637715606---7898902865195986991--8-0.1" type="actor-car_type_1-2159507744543430516" depart="216.00" departLane="0" departPos="random" departSpeed="max" arrivalLane="0" arrivalPos="random">
        <route edges="edge-north-NS edge-north-NW edge-west-EW"/>
    </vehicle>
    <vehicle id="car_type_1-flow-route-edge-south-SN_0_random-edge-east-WE_0_random-5313510630307015898---7898902865195986991--0-0.1" type="actor-car_type_1-2159507744543430516" depart="216.00" departLane="0" departPos="random" departSpeed="max" arrivalLane="0" arrivalPos="random">
        <route edges="edge-south-SN edge-south-SE edge-east-WE"/>
    </vehicle>
    <vehicle id="car_type_1-flow-route-edge-south-SN_0_random-edge-north-SN_0_random--8320095762011564436---7898902865195986991--2-0.1" type="actor-car_type_1-2159507744543430516" depart="216.00" departLane="0" departPos="random" departSpeed="max" arrivalLane="0" arrivalPos="random">
        <route edges="edge-south-SN edge-south-SE edge-east-EN edge-north-SN"/>
    </vehicle>
    <vehicle id="car_type_1-flow-route-edge-south-SN_0_random-edge-west-EW_0_random-4255269262314118599---7898902865195986991--1-0.1" type="actor-car_type_1-2159507744543430516" depart="216.00" departLane="0" departPos="random" departSpeed="max" arrivalLane="0" arrivalPos="random">
        <route edges="edge-south-SN edge-south-SE edge-east-EN edge-north-NW edge-west-EW"/>
    </vehicle>
    <vehicle id="car_type_1-flow-route-edge-west-WE_0_random-edge-east-WE_0_random--5905405562819648963---7898902865195986991--3-0.1" type="actor-car_type_1-2159507744543430516" depart="216.00" departLane="0" departPos="random" departSpeed="max" arrivalLane="0" arrivalPos="random">
        <route edges="edge-west-WE edge-west-WS edge-south-SE edge-east-WE"/>
    </vehicle>
    <vehicle id="car_type_1-flow-route-edge-west-WE_0_random-edge-north-SN_0_random--4034857803880933133---7898902865195986991--5-0.1" type="actor-car_type_1-2159507744543430516" depart="216.00" departLane="0" departPos="random" departSpeed="max" arrivalLane="0" arrivalPos="random">
        <route edges="edge-west-WE edge-west-WS edge-south-SE edge-east-EN edge-north-SN"/>
    </vehicle>
    <vehicle id="car_type_1-flow-route-edge-west-WE_0_random-edge-south-NS_0_random-5050240295409023071---7898902865195986991--4-0.1" type="actor-car_type_1-2159507744543430516" depart="216.00" departLane="0" departPos="random" departSpeed="max" arrivalLane="0" arrivalPos="random">
        <route edges="edge-west-WE edge-west-WS edge-south-NS"/>
    </vehicle>
    <vehicle id="car_type_2-flow-route-edge-east-EN_1_random-edge-south-NS_0_random-2869321101968521312---7898902865195986991--9-1.1" type="actor-car_type_2--5504029626645479758" depart="216.00" departLane="1" departPos="random" departSpeed="max" arrivalLane="0" arrivalPos="random">