<?xml version="1.0" encoding="UTF-8"?>

<!-- generated on 2021-10-23 11:46:10 by Eclipse SUMO duarouter Version 1.10.0
<configuration xmlns:xsi="http://www.w3.org/2001/XMLSchema-instance" xsi:noNamespaceSchemaLocation="http://sumo.dlr.de/xsd/duarouterConfiguration.xsd">

    <input>
        <net-file value="/home/automan/Project3/NNLS_R1/scenarios/roundabout/map.net.xml"/>
        <route-files value="/tmp/tmpyo217dku/trips.trips.xml"/>
    </input>

    <output>
        <output-file value="/home/automan/Project3/NNLS_R1/scenarios/roundabout/traffic/traffic_762.rou.xml"/>
        <alternatives-output value="/home/automan/Project3/NNLS_R1/scenarios/roundabout/traffic/traffic_762.rou.alt.xml"/>
    </output>

    <processing>
        <unsorted-input value="true"/>
        <repair value="true"/>
    </processing>

    <report>
        <error-log value="/home/automan/.smarts/_duarouter_routing/traffic/traffic_762.log"/>
        <no-step-log value="true"/>
    </report>

    <random_number>
        <seed value="762"/>
    </random_number>

</configuration>
-->

<routes xmlns:xsi="http://www.w3.org/2001/XMLSchema-instance" xsi:noNamespaceSchemaLocation="http://sumo.dlr.de/xsd/routes_file.xsd">
    <vType id="actor-car_type_1-4854880672397165172" minGap="2.59" maxSpeed="55.50" speedFactor="normc(0.90,0.10,0.20,2.00)" vClass="passenger" impatience="0.52" lcCooperative="0.28155415454029253" lcSpeedGain="1.7474763527073878" lcImpatience="0.846632276425166" jmIgnoreFoeProb="0.20019676344855208" accel="2.6" decel="4.5" sigma="0.4334110367572168"/>
    <vehicle id="car_type_1-flow-route-edge-east-EN_1_random-edge-south-NS_0_random-2869321101968521312---5197458904060800580--9-0.0" type="actor-car_type_1-4854880672397165172" depart="0.00" departLane="1" departPos="random" departSpeed="max" arrivalLane="0" arrivalPos="random">
        <route edges="edge-east-EN edge-north-NW edge-west-WS edge-south-NS"/>
    </vehicle>
    <vehicle id="car_type_1-flow-route-edge-north-NS_0_random-edge-east-WE_0_random-1024225989189090795---5197458904060800580--6-0.0" type="actor-car_type_1-4854880672397165172" depart="0.00" departLane="0" departPos="random" departSpeed="max" arrivalLane="0" arrivalPos="random">
        <route edges="edge-north-NS edge-north-NW edge-west-WS edge-south-SE edge-east-WE"/>
    </vehicle>
    <vehicle id="car_type_1-flow-route-edge-north-NS_0_random-edge-south-NS_0_random-5884962658851547761---5197458904060800580--7-0.0" type="actor-car_type_1-4854880672397165172" depart="0.00" departLane="0" departPos="random" departSpeed="max" arrivalLane="0" arrivalPos="random">
        <route edges="edge-north-NS edge-north-NW edge-west-WS edge-south-NS"/>
    </vehicle>
    <vehicle id="car_type_1-flow-route-edge-north-NS_0_random-edge-west-EW_0_random-3497666692637715606---5197458904060800580--8-0.0" type="actor-car_type_1-4854880672397165172" depart="0.00" departLane="0" departPos="random" departSpeed="max" arrivalLane="0" arrivalPos="random">
        <route edges="edge-north-NS edge-north-NW edge-west-EW"/>
    </vehicle>
    <vehicle id="car_type_1-flow-route-edge-south-SN_0_random-edge-east-WE_0_random-5313510630307015898---5197458904060800580--0-0.0" type="actor-car_type_1-4854880672397165172" depart="0.00" departLane="0" departPos="random" departSpeed="max" arrivalLane="0" arrivalPos="random">
        <route edges="edge-south-SN edge-south-SE edge-east-WE"/>
    </vehicle>
    <vehicle id="car_type_1-flow-route-edge-south-SN_0_random-edge-north-SN_0_random--8320095762011564436---5197458904060800580--2-0.0" type="actor-car_type_1-4854880672397165172" depart="0.00" departLane="0" departPos="random" departSpeed="max" arrivalLane="0" arrivalPos="random">
        <route edges="edge-south-SN edge-south-SE edge-east-EN edge-north-SN"/>
    </vehicle>
    <vehicle id="car_type_1-flow-route-edge-south-SN_0_random-edge-west-EW_0_random-4255269262314118599---5197458904060800580--1-0.0" type="actor-car_type_1-4854880672397165172" depart="0.00" departLane="0" departPos="random" departSpeed="max" arrivalLane="0" arrivalPos="random">
        <route edges="edge-south-SN edge-south-SE edge-east-EN edge-north-NW edge-west-EW"/>
    </vehicle>
    <vehicle id="car_type_1-flow-route-edge-west-WE_0_random-edge-east-WE_0_random--5905405562819648963---5197458904060800580--3-0.0" type="actor-car_type_1-4854880672397165172" depart="0.00" departLane="0" departPos="random" departSpeed="max" arrivalLane="0" arrivalPos="random">
        <route edges="edge-west-WE edge-west-WS edge-south-SE edge-east-WE"/>
    </vehicle>
    <vehicle id="car_type_1-flow-route-edge-west-WE_0_random-edge-north-SN_0_random--4034857803880933133---5197458904060800580--5-0.0" type="actor-car_type_1-4854880672397165172" depart="0.00" departLane="0" departPos="random" departSpeed="max" arrivalLane="0" arrivalPos="random">
        <route edges="edge-west-WE edge-west-WS edge-south-SE edge-east-EN edge-north-SN"/>
    </vehicle>
    <vehicle id="car_type_1-flow-route-edge-west-WE_0_random-edge-south-NS_0_random-5050240295409023071---5197458904060800580--4-0.0" type="actor-car_type_1-4854880672397165172" depart="0.00" departLane="0" departPos="random" departSpeed="max" arrivalLane="0" arrivalPos="random">
        <route edges="edge-west-WE edge-west-WS edge-south-NS"/>
    </vehicle>
    <vType id="actor-car_type_2--702713226385878457" minGap="3.64" maxSpeed="55.50" speedFactor="normc(0.66,0.10,0.20,2.00)" vClass="passenger" impatience="0.62" lcCooperative="0.7649457556329237" lcSpeedGain="1.9181045224517854" lcImpatience="0.7114997008563314" jmIgnoreFoeProb="0.5234609255649242" accel="2.6" decel="4.5" sigma="0.7333638825664617"/>
    <vehicle id="car_type_2-flow-route-edge-east-EN_1_random-edge-south-NS_0_random-2869321101968521312---5197458904060800580--9-1.0" type="actor-car_type_2--702713226385878457" depart="0.00" departLane="1" departPos="random" departSpeed="max" arrivalLane="0" arrivalPos="random">
        <route edges="edge-east-EN edge-north-NW edge-west-WS edge-south-NS"/>
    </vehicle>
    <vehicle id="car_type_2-flow-route-edge-north-NS_0_random-edge-east-WE_0_random-1024225989189090795---5197458904060800580--6-1.0" type="actor-car_type_2--702713226385878457" depart="0.00" departLane="0" departPos="random" departSpeed="max" arrivalLane="0" arrivalPos="random">
        <route edges="edge-north-NS edge-north-NW edge-west-WS edge-south-SE edge-east-WE"/>
    </vehicle>
    <vehicle id="car_type_2-flow-route-edge-north-NS_0_random-edge-south-NS_0_random-5884962658851547761---5197458904060800580--7-1.0" type="actor-car_type_2--702713226385878457" depart="0.00" departLane="0" departPos="random" departSpeed="max" arrivalLane="0" arrivalPos="random">
        <route edges="edge-north-NS edge-north-NW edge-west-WS edge-south-NS"/>
    </vehicle>
    <vehicle id="car_type_2-flow-route-edge-north-NS_0_random-edge-west-EW_0_random-3497666692637715606---5197458904060800580--8-1.0" type="actor-car_type_2--702713226385878457" depart="0.00" departLane="0" departPos="random" departSpeed="max" arrivalLane="0" arrivalPos="random">
        <route edges="edge-north-NS edge-north-NW edge-west-EW"/>
    </vehicle>
    <vehicle id="car_type_2-flow-route-edge-south-SN_0_random-edge-east-WE_0_random-5313510630307015898---5197458904060800580--0-1.0" type="actor-car_type_2--702713226385878457" depart="0.00" departLane="0" departPos="random" departSpeed="max" arrivalLane="0" arrivalPos="random">
        <route edges="edge-south-SN edge-south-SE edge-east-WE"/>
    </vehicle>
    <vehicle id="car_type_2-flow-route-edge-south-SN_0_random-edge-north-SN_0_random--8320095762011564436---5197458904060800580--2-1.0" type="actor-car_type_2--702713226385878457" depart="0.00" departLane="0" departPos="random" departSpeed="max" arrivalLane="0" arrivalPos="random">
        <route edges="edge-south-SN edge-south-SE edge-east-EN edge-north-SN"/>
    </vehicle>
    <vehicle id="car_type_2-flow-route-edge-south-SN_0_random-edge-west-EW_0_random-4255269262314118599---5197458904060800580--1-1.0" type="actor-car_type_2--702713226385878457" depart="0.00" departLane="0" departPos="random" departSpeed="max" arrivalLane="0" arrivalPos="random">
        <route edges="edge-south-SN edge-south-SE edge-east-EN edge-north-NW edge-west-EW"/>
    </vehicle>
    <vehicle id="car_type_2-flow-route-edge-west-WE_0_random-edge-east-WE_0_random--5905405562819648963---5197458904060800580--3-1.0" type="actor-car_type_2--702713226385878457" depart="0.00" departLane="0" departPos="random" departSpeed="max" arrivalLane="0" arrivalPos="random">
        <route edges="edge-west-WE edge-west-WS edge-south-SE edge-east-WE"/>
    </vehicle>
    <vehicle id="car_type_2-flow-route-edge-west-WE_0_random-edge-north-SN_0_random--4034857803880933133---5197458904060800580--5-1.0" type="actor-car_type_2--702713226385878457" depart="0.00" departLane="0" departPos="random" departSpeed="max" arrivalLane="0" arrivalPos="random">
        <route edges="edge-west-WE edge-west-WS edge-south-SE edge-east-EN edge-north-SN"/>
    </vehicle>
    <vehicle id="car_type_2-flow-route-edge-west-WE_0_random-edge-south-NS_0_random-5050240295409023071---5197458904060800580--4-1.0" type="actor-car_type_2--702713226385878457" depart="0.00" departLane="0" departPos="random" departSpeed="max" arrivalLane="0" arrivalPos="random">
        <route edges="edge-west-WE edge-west-WS edge-south-NS"/>
    </vehicle>
    <vType id="actor-car_type_3--6124610042788801368" minGap="2.73" maxSpeed="55.50" speedFactor="normc(0.64,0.10,0.20,2.00)" vClass="passenger" impatience="0.71" lcCooperative="0.8129853138004118" lcSpeedGain="1.2992563123199672" lcImpatience="0.19940654779280376" jmIgnoreFoeProb="0.4991694381612167" accel="2.6" decel="4.5" sigma="0.6437488620127829"/>
    <vehicle id="car_type_3-flow-route-edge-east-EN_1_random-edge-south-NS_0_random-2869321101968521312---5197458904060800580--9-2.0" type="actor-car_type_3--6124610042788801368" depart="0.00" departLane="1" departPos="random" departSpeed="max" arrivalLane="0" arrivalPos="random">
        <route edges="edge-east-EN edge-north-NW edge-west-WS edge-south-NS"/>
    </vehicle>
    <vehicle id="car_type_3-flow-route-edge-north-NS_0_random-edge-east-WE_0_random-1024225989189090795---5197458904060800580--6-2.0" type="actor-car_type_3--6124610042788801368" depart="0.00" departLane="0" departPos="random" departSpeed="max" arrivalLane="0" arrivalPos="random">
        <route edges="edge-north-NS edge-north-NW edge-west-WS edge-south-SE edge-east-WE"/>
    </vehicle>
    <vehicle id="car_type_3-flow-route-edge-north-NS_0_random-edge-south-NS_0_random-5884962658851547761---5197458904060800580--7-2.0" type="actor-car_type_3--6124610042788801368" depart="0.00" departLane="0" departPos="random" departSpeed="max" arrivalLane="0" arrivalPos="random">
        <route edges="edge-north-NS edge-north-NW edge-west-WS edge-south-NS"/>
    </vehicle>
    <vehicle id="car_type_3-flow-route-edge-north-NS_0_random-edge-west-EW_0_random-3497666692637715606---5197458904060800580--8-2.0" type="actor-car_type_3--6124610042788801368" depart="0.00" departLane="0" departPos="random" departSpeed="max" arrivalLane="0" arrivalPos="random">
        <route edges="edge-north-NS edge-north-NW edge-west-EW"/>
    </vehicle>
    <vehicle id="car_type_3-flow-route-edge-south-SN_0_random-edge-east-WE_0_random-5313510630307015898---5197458904060800580--0-2.0" type="actor-car_type_3--6124610042788801368" depart="0.00" departLane="0" departPos="random" departSpeed="max" arrivalLane="0" arrivalPos="random">
        <route edges="edge-south-SN edge-south-SE edge-east-WE"/>
    </vehicle>
    <vehicle id="car_type_3-flow-route-edge-south-SN_0_random-edge-north-SN_0_random--8320095762011564436---5197458904060800580--2-2.0" type="actor-car_type_3--6124610042788801368" depart="0.00" departLane="0" departPos="random" departSpeed="max" arrivalLane="0" arrivalPos="random">
        <route edges="edge-south-SN edge-south-SE edge-east-EN edge-north-SN"/>
    </vehicle>
    <vehicle id="car_type_3-flow-route-edge-south-SN_0_random-edge-west-EW_0_random-4255269262314118599---5197458904060800580--1-2.0" type="actor-car_type_3--6124610042788801368" depart="0.00" departLane="0" departPos="random" departSpeed="max" arrivalLane="0" arrivalPos="random">
        <route edges="edge-south-SN edge-south-SE edge-east-EN edge-north-NW edge-west-EW"/>
    </vehicle>
    <vehicle id="car_type_3-flow-route-edge-west-WE_0_random-edge-east-WE_0_random--5905405562819648963---5197458904060800580--3-2.0" type="actor-car_type_3--6124610042788801368" depart="0.00" departLane="0" departPos="random" departSpeed="max" arrivalLane="0" arrivalPos="random">
        <route edges="edge-west-WE edge-west-WS edge-south-SE edge-east-WE"/>
    </vehicle>
    <vehicle id="car_type_3-flow-route-edge-west-WE_0_random-edge-north-SN_0_random--4034857803880933133---5197458904060800580--5-2.0" type="actor-car_type_3--6124610042788801368" depart="0.00" departLane="0" departPos="random" departSpeed="max" arrivalLane="0" arrivalPos="random">
        <route edges="edge-west-WE edge-west-WS edge-south-SE edge-east-EN edge-north-SN"/>
    </vehicle>
    <vehicle id="car_type_3-flow-route-edge-west-WE_0_random-edge-south-NS_0_random-5050240295409023071---5197458904060800580--4-2.0" type="actor-car_type_3--6124610042788801368" depart="0.00" departLane="0" departPos="random" departSpeed="max" arrivalLane="0" arrivalPos="random">
        <route edges="edge-west-WE edge-west-WS edge-south-NS"/>
    </vehicle>
    <vType id="actor-car_type_4-1567252233803820178" minGap="2.03" maxSpeed="55.50" speedFactor="normc(0.68,0.10,0.20,2.00)" vClass="passenger" impatience="0.10" lcCooperative="0.988069687952349" lcSpeedGain="1.71055344461614" lcImpatience="0.7401457600644193" jmIgnoreFoeProb="0.6281812207292156" accel="2.6" decel="4.5" sigma="0.6363936721768345"/>
    <vehicle id="car_type_4-flow-route-edge-east-EN_1_random-edge-south-NS_0_random-2869321101968521312---5197458904060800580--9-3.0" type="actor-car_type_4-1567252233803820178" depart="0.00" departLane="1" departPos="random" departSpeed="max" arrivalLane="0" arrivalPos="random">
        <route edges="edge-east-EN edge-north-NW edge-west-WS edge-south-NS"/>
    </vehicle>
    <vehicle id="car_type_4-flow-route-edge-north-NS_0_random-edge-east-WE_0_random-1024225989189090795---5197458904060800580--6-3.0" type="actor-car_type_4-1567252233803820178" depart="0.00" departLane="0" departPos="random" departSpeed="max" arrivalLane="0" arrivalPos="random">
        <route edges="edge-north-NS edge-north-NW edge-west-WS edge-south-SE edge-east-WE"/>
    </vehicle>
    <vehicle id="car_type_4-flow-route-edge-north-NS_0_random-edge-south-NS_0_random-5884962658851547761---5197458904060800580--7-3.0" type="actor-car_type_4-1567252233803820178" depart="0.00" departLane="0" departPos="random" departSpeed="max" arrivalLane="0" arrivalPos="random">
        <route edges="edge-north-NS edge-north-NW edge-west-WS edge-south-NS"/>
    </vehicle>
    <vehicle id="car_type_4-flow-route-edge-north-NS_0_random-edge-west-EW_0_random-3497666692637715606---5197458904060800580--8-3.0" type="actor-car_type_4-1567252233803820178" depart="0.00" departLane="0" departPos="random" departSpeed="max" arrivalLane="0" arrivalPos="random">
        <route edges="edge-north-NS edge-north-NW edge-west-EW"/>
    </vehicle>
    <vehicle id="car_type_4-flow-route-edge-south-SN_0_random-edge-east-WE_0_random-5313510630307015898---5197458904060800580--0-3.0" type="actor-car_type_4-1567252233803820178" depart="0.00" departLane="0" departPos="random" departSpeed="max" arrivalLane="0" arrivalPos="random">
        <route edges="edge-south-SN edge-south-SE edge-east-WE"/>
    </vehicle>
    <vehicle id="car_type_4-flow-route-edge-south-SN_0_random-edge-north-SN_0_random--8320095762011564436---5197458904060800580--2-3.0" type="actor-car_type_4-1567252233803820178" depart="0.00" departLane="0" departPos="random" departSpeed="max" arrivalLane="0" arrivalPos="random">
        <route edges="edge-south-SN edge-south-SE edge-east-EN edge-north-SN"/>
    </vehicle>
    <vehicle id="car_type_4-flow-route-edge-south-SN_0_random-edge-west-EW_0_random-4255269262314118599---5197458904060800580--1-3.0" type="actor-car_type_4-1567252233803820178" depart="0.00" departLane="0" departPos="random" departSpeed="max" arrivalLane="0" arrivalPos="random">
        <route edges="edge-south-SN edge-south-SE edge-east-EN edge-north-NW edge-west-EW"/>
    </vehicle>
    <vehicle id="car_type_4-flow-route-edge-west-WE_0_random-edge-east-WE_0_random--5905405562819648963---5197458904060800580--3-3.0" type="actor-car_type_4-1567252233803820178" depart="0.00" departLane="0" departPos="random" departSpeed="max" arrivalLane="0" arrivalPos="random">
        <route edges="edge-west-WE edge-west-WS edge-south-SE edge-east-WE"/>
    </vehicle>
    <vehicle id="car_type_4-flow-route-edge-west-WE_0_random-edge-north-SN_0_random--4034857803880933133---5197458904060800580--5-3.0" type="actor-car_type_4-1567252233803820178" depart="0.00" departLane="0" departPos="random" departSpeed="max" arrivalLane="0" arrivalPos="random">
        <route edges="edge-west-WE edge-west-WS edge-south-SE edge-east-EN edge-north-SN"/>
    </vehicle>
    <vehicle id="car_type_4-flow-route-edge-west-WE_0_random-edge-south-NS_0_random-5050240295409023071---5197458904060800580--4-3.0" type="actor-car_type_4-1567252233803820178" depart="0.00" departLane="0" departPos="random" departSpeed="max" arrivalLane="0" arrivalPos="random">
        <route edges="edge-west-WE edge-west-WS edge-south-NS"/>
    </vehicle>
    <vType id="actor-car_type_5--3492563034196639712" minGap="3.39" maxSpeed="55.50" speedFactor="normc(0.97,0.10,0.20,2.00)" vClass="passenger" impatience="0.47" lcCooperative="0.010114335242915717" lcSpeedGain="1.3784481499772927" lcImpatience="0.11665059337493522" jmIgnoreFoeProb="0.43732787771728365" accel="2.6" decel="4.5" sigma="0.6211306432829258"/>
    <vehicle id="car_type_5-flow-route-edge-east-EN_1_random-edge-south-NS_0_random-2869321101968521312---5197458904060800580--9-4.0" type="actor-car_type_5--3492563034196639712" depart="0.00" departLane="1" departPos="random" departSpeed="max" arrivalLane="0" arrivalPos="random">
        <route edges="edge-east-EN edge-north-NW edge-west-WS edge-south-NS"/>
    </vehicle>
    <vehicle id="car_type_5-flow-route-edge-north-NS_0_random-edge-east-WE_0_random-1024225989189090795---5197458904060800580--6-4.0" type="actor-car_type_5--3492563034196639712" depart="0.00" departLane="0" departPos="random" departSpeed="max" arrivalLane="0" arrivalPos="random">
        <route edges="edge-north-NS edge-north-NW edge-west-WS edge-south-SE edge-east-WE"/>
    </vehicle>
    <vehicle id="car_type_5-flow-route-edge-north-NS_0_random-edge-south-NS_0_random-5884962658851547761---5197458904060800580--7-4.0" type="actor-car_type_5--3492563034196639712" depart="0.00" departLane="0" departPos="random" departSpeed="max" arrivalLane="0" arrivalPos="random">
        <route edges="edge-north-NS edge-north-NW edge-west-WS edge-south-NS"/>
    </vehicle>
    <vehicle id="car_type_5-flow-route-edge-north-NS_0_random-edge-west-EW_0_random-3497666692637715606---5197458904060800580--8-4.0" type="actor-car_type_5--3492563034196639712" depart="0.00" departLane="0" departPos="random" departSpeed="max" arrivalLane="0" arrivalPos="random">
        <route edges="edge-north-NS edge-north-NW edge-west-EW"/>
    </vehicle>
    <vehicle id="car_type_5-flow-route-edge-south-SN_0_random-edge-east-WE_0_random-5313510630307015898---5197458904060800580--0-4.0" type="actor-car_type_5--3492563034196639712" depart="0.00" departLane="0" departPos="random" departSpeed="max" arrivalLane="0" arrivalPos="random">
        <route edges="edge-south-SN edge-south-SE edge-east-WE"/>
    </vehicle>
    <vehicle id="car_type_5-flow-route-edge-south-SN_0_random-edge-north-SN_0_random--8320095762011564436---5197458904060800580--2-4.0" type="actor-car_type_5--3492563034196639712" depart="0.00" departLane="0" departPos="random" departSpeed="max" arrivalLane="0" arrivalPos="random">
        <route edges="edge-south-SN edge-south-SE edge-east-EN edge-north-SN"/>
    </vehicle>
    <vehicle id="car_type_5-flow-route-edge-south-SN_0_random-edge-west-EW_0_random-4255269262314118599---5197458904060800580--1-4.0" type="actor-car_type_5--3492563034196639712" depart="0.00" departLane="0" departPos="random" departSpeed="max" arrivalLane="0" arrivalPos="random">
        <route edges="edge-south-SN edge-south-SE edge-east-EN edge-north-NW edge-west-EW"/>
    </vehicle>
    <vehicle id="car_type_5-flow-route-edge-west-WE_0_random-edge-east-WE_0_random--5905405562819648963---5197458904060800580--3-4.0" type="actor-car_type_5--3492563034196639712" depart="0.00" departLane="0" departPos="random" departSpeed="max" arrivalLane="0" arrivalPos="random">
        <route edges="edge-west-WE edge-west-WS edge-south-SE edge-east-WE"/>
    </vehicle>
    <vehicle id="car_type_5-flow-route-edge-west-WE_0_random-edge-north-SN_0_random--4034857803880933133---5197458904060800580--5-4.0" type="actor-car_type_5--3492563034196639712" depart="0.00" departLane="0" departPos="random" departSpeed="max" arrivalLane="0" arrivalPos="random">
        <route edges="edge-west-WE edge-west-WS edge-south-SE edge-east-EN edge-north-SN"/>
    </vehicle>
    <vehicle id="car_type_5-flow-route-edge-west-WE_0_random-edge-south-NS_0_random-5050240295409023071---5197458904060800580--4-4.0" type="actor-car_type_5--3492563034196639712" depart="0.00" departLane="0" departPos="random" departSpeed="max" arrivalLane="0" arrivalPos="random">
        <route edges="edge-west-WE edge-west-WS edge-south-NS"/>
    </vehicle>
    <vType id="actor-car_type_6-3602342451702151310" minGap="3.71" maxSpeed="55.50" speedFactor="normc(0.84,0.10,0.20,2.00)" vClass="passenger" impatience="0.84" lcCooperative="0.38570090060882045" lcSpeedGain="1.4860880445412485" lcImpatience="0.5118691226259188" jmIgnoreFoeProb="0.8906464121778863" accel="2.6" decel="4.5" sigma="0.5605350409968717"/>
    <vehicle id="car_type_6-flow-route-edge-east-EN_1_random-edge-south-NS_0_random-2869321101968521312---5197458904060800580--9-5.0" type="actor-car_type_6-3602342451702151310" depart="0.00" departLane="1" departPos="random" departSpeed="max" arrivalLane="0" arrivalPos="random">
        <route edges="edge-east-EN edge-north-NW edge-west-WS edge-south-NS"/>
    </vehicle>
    <vehicle id="car_type_6-flow-route-edge-north-NS_0_random-edge-east-WE_0_random-1024225989189090795---5197458904060800580--6-5.0" type="actor-car_type_6-3602342451702151310" depart="0.00" departLane="0" departPos="random" departSpeed="max" arrivalLane="0" arrivalPos="random">
        <route edges="edge-north-NS edge-north-NW edge-west-WS edge-south-SE edge-east-WE"/>
    </vehicle>
    <vehicle id="car_type_6-flow-route-edge-north-NS_0_random-edge-south-NS_0_random-5884962658851547761---5197458904060800580--7-5.0" type="actor-car_type_6-3602342451702151310" depart="0.00" departLane="0" departPos="random" departSpeed="max" arrivalLane="0" arrivalPos="random">
        <route edges="edge-north-NS edge-north-NW edge-west-WS edge-south-NS"/>
    </vehicle>
    <vehicle id="car_type_6-flow-route-edge-north-NS_0_random-edge-west-EW_0_random-3497666692637715606---5197458904060800580--8-5.0" type="actor-car_type_6-3602342451702151310" depart="0.00" departLane="0" departPos="random" departSpeed="max" arrivalLane="0" arrivalPos="random">
        <route edges="edge-north-NS edge-north-NW edge-west-EW"/>
    </vehicle>
    <vehicle id="car_type_6-flow-route-edge-south-SN_0_random-edge-east-WE_0_random-5313510630307015898---5197458904060800580--0-5.0" type="actor-car_type_6-3602342451702151310" depart="0.00" departLane="0" departPos="random" departSpeed="max" arrivalLane="0" arrivalPos="random">
        <route edges="edge-south-SN edge-south-SE edge-east-WE"/>
    </vehicle>
    <vehicle id="car_type_6-flow-route-edge-south-SN_0_random-edge-north-SN_0_random--8320095762011564436---5197458904060800580--2-5.0" type="actor-car_type_6-3602342451702151310" depart="0.00" departLane="0" departPos="random" departSpeed="max" arrivalLane="0" arrivalPos="random">
        <route edges="edge-south-SN edge-south-SE edge-east-EN edge-north-SN"/>
    </vehicle>
    <vehicle id="car_type_6-flow-route-edge-south-SN_0_random-edge-west-EW_0_random-4255269262314118599---5197458904060800580--1-5.0" type="actor-car_type_6-3602342451702151310" depart="0.00" departLane="0" departPos="random" departSpeed="max" arrivalLane="0" arrivalPos="random">
        <route edges="edge-south-SN edge-south-SE edge-east-EN edge-north-NW edge-west-EW"/>
    </vehicle>
    <vehicle id="car_type_6-flow-route-edge-west-WE_0_random-edge-east-WE_0_random--5905405562819648963---5197458904060800580--3-5.0" type="actor-car_type_6-3602342451702151310" depart="0.00" departLane="0" departPos="random" departSpeed="max" arrivalLane="0" arrivalPos="random">
        <route edges="edge-west-WE edge-west-WS edge-south-SE edge-east-WE"/>
    </vehicle>
    <vehicle id="car_type_6-flow-route-edge-west-WE_0_random-edge-north-SN_0_random--4034857803880933133---5197458904060800580--5-5.0" type="actor-car_type_6-3602342451702151310" depart="0.00" departLane="0" departPos="random" departSpeed="max" arrivalLane="0" arrivalPos="random">
        <route edges="edge-west-WE edge-west-WS edge-south-SE edge-east-EN edge-north-SN"/>
    </vehicle>
    <vehicle id="car_type_6-flow-route-edge-west-WE_0_random-edge-south-NS_0_random-5050240295409023071---5197458904060800580--4-5.0" type="actor-car_type_6-3602342451702151310" depart="0.00" departLane="0" departPos="random" departSpeed="max" arrivalLane="0" arrivalPos="random">
        <route edges="edge-west-WE edge-west-WS edge-south-NS"/>
    </vehicle>
    <vehicle id="car_type_1-flow-route-edge-east-EN_1_random-edge-south-NS_0_random-2869321101968521312---5197458904060800580--9-0.1" type="actor-car_type_1-4854880672397165172" depart="216.00" departLane="1" departPos="random" departSpeed="max" arrivalLane="0" arrivalPos="random">
        <route edges="edge-east-EN edge-north-NW edge-west-WS edge-south-NS"/>
    </vehicle>
    <vehicle id="car_type_1-flow-route-edge-north-NS_0_random-edge-east-WE_0_random-1024225989189090795---5197458904060800580--6-0.1" type="actor-car_type_1-4854880672397165172" depart="216.00" departLane="0" departPos="random" departSpeed="max" arrivalLane="0" arrivalPos="random">
        <route edges="edge-north-NS edge-north-NW edge-west-WS edge-south-SE edge-east-WE"/>
    </vehicle>
    <vehicle id="car_type_1-flow-route-edge-north-NS_0_random-edge-south-NS_0_random-5884962658851547761---5197458904060800580--7-0.1" type="actor-car_type_1-4854880672397165172" depart="216.00" departLane="0" departPos="random" departSpeed="max" arrivalLane="0" arrivalPos="random">
        <route edges="edge-north-NS edge-north-NW edge-west-WS edge-south-NS"/>
    </vehicle>
    <vehicle id="car_type_1-flow-route-edge-north-NS_0_random-edge-west-EW_0_random-3497666692637715606---5197458904060800580--8-0.1" type="actor-car_type_1-4854880672397165172" depart="216.00" departLane="0" departPos="random" departSpeed="max" arrivalLane="0" arrivalPos="random">
        <route edges="edge-north-NS edge-north-NW edge-west-EW"/>
    </vehicle>
    <vehicle id="car_type_1-flow-route-edge-south-SN_0_random-edge-east-WE_0_random-5313510630307015898---5197458904060800580--0-0.1" type="actor-car_type_1-4854880672397165172" depart="216.00" departLane="0" departPos="random" departSpeed="max" arrivalLane="0" arrivalPos="random">
        <route edges="edge-south-SN edge-south-SE edge-east-WE"/>
    </vehicle>
    <vehicle id="car_type_1-flow-route-edge-south-SN_0_random-edge-north-SN_0_random--8320095762011564436---5197458904060800580--2-0.1" type="actor-car_type_1-4854880672397165172" depart="216.00" departLane="0" departPos="random" departSpeed="max" arrivalLane="0" arrivalPos="random">
        <route edges="edge-south-SN edge-south-SE edge-east-EN edge-north-SN"/>
    </vehicle>
    <vehicle id="car_type_1-flow-route-edge-south-SN_0_random-edge-west-EW_0_random-4255269262314118599---5197458904060800580--1-0.1" type="actor-car_type_1-4854880672397165172" depart="216.00" departLane="0" departPos="random" departSpeed="max" arrivalLane="0" arrivalPos="random">
        <route edges="edge-south-SN edge-south-SE edge-east-EN edge-north-NW edge-west-EW"/>
    </vehicle>
    <vehicle id="car_type_1-flow-route-edge-west-WE_0_random-edge-east-WE_0_random--5905405562819648963---5197458904060800580--3-0.1" type="actor-car_type_1-4854880672397165172" depart="216.00" departLane="0" departPos="random" departSpeed="max" arrivalLane="0" arrivalPos="random">
        <route edges="edge-west-WE edge-west-WS edge-south-SE edge-east-WE"/>
    </vehicle>
    <vehicle id="car_type_1-flow-route-edge-west-WE_0_random-edge-north-SN_0_random--4034857803880933133---5197458904060800580--5-0.1" type="actor-car_type_1-4854880672397165172" depart="216.00" departLane="0" departPos="random" departSpeed="max" arrivalLane="0" arrivalPos="random">
        <route edges="edge-west-WE edge-west-WS edge-south-SE edge-east-EN edge-north-SN"/>
    </vehicle>
    <vehicle id="car_type_1-flow-route-edge-west-WE_0_random-edge-south-NS_0_random-5050240295409023071---5197458904060800580--4-0.1" type="actor-car_type_1-4854880672397165172" depart="216.00" departLane="0" departPos="random" departSpeed="max" arrivalLane="0" arrivalPos="random">
        <route edges="edge-west-WE edge-west-WS edge-south-NS"/>
    </vehicle>
    <vehicle id="car_type_2-flow-route-edge-east-EN_1_random-edge-south-NS_0_random-2869321101968521312---5197458904060800580--9-1.1" type="actor-car_type_2--702713226385878457" depart="216.00" departLane="1" departPos="random" departSpeed="max" arrivalLane="0" arrivalPos="random">