<?xml version="1.0" encoding="UTF-8"?>

<!-- generated on 2021-10-22 17:06:34 by Eclipse SUMO duarouter Version 1.10.0
<configuration xmlns:xsi="http://www.w3.org/2001/XMLSchema-instance" xsi:noNamespaceSchemaLocation="http://sumo.dlr.de/xsd/duarouterConfiguration.xsd">

    <input>
        <net-file value="/home/automan/Project3/NNLS_R1/scenarios/left_turn_test/map.net.xml"/>
        <route-files value="/tmp/tmpyi28gbq4/trips.trips.xml"/>
    </input>

    <output>
        <output-file value="/home/automan/Project3/NNLS_R1/scenarios/left_turn_test/traffic/traffic_141.rou.xml"/>
        <alternatives-output value="/home/automan/Project3/NNLS_R1/scenarios/left_turn_test/traffic/traffic_141.rou.alt.xml"/>
    </output>

    <processing>
        <unsorted-input value="true"/>
        <repair value="true"/>
    </processing>

    <report>
        <error-log value="/home/automan/.smarts/_duarouter_routing/traffic/traffic_141.log"/>
        <no-step-log value="true"/>
    </report>

    <random_number>
        <seed value="141"/>
    </random_number>

</configuration>
-->

<routes xmlns:xsi="http://www.w3.org/2001/XMLSchema-instance" xsi:noNamespaceSchemaLocation="http://sumo.dlr.de/xsd/routes_file.xsd">
    <vType id="actor-car_type_1-162591272234549392" minGap="2.80" maxSpeed="55.50" speedFactor="normc(0.99,0.10,0.20,2.00)" vClass="passenger" impatience="0.23" lcCooperative="0.6202216173810519" lcSpeedGain="1.635092002877264" lcImpatience="0.3543201600443098" jmIgnoreFoeProb="0.33445862351480926" accel="2.6" decel="4.5" sigma="0.50522995526918"/>
    <vehicle id="car_type_1-flow-route-edge-east-EW_0_random-edge-west-EW_0_max-4424254747846103838---2524120307097757919--2-0.0" type="actor-car_type_1-162591272234549392" depart="0.00" departLane="0" departPos="random" departSpeed="max" arrivalLane="0" arrivalPos="max">
        <route edges="edge-east-EW edge-west-EW"/>
    </vehicle>
    <vehicle id="car_type_1-flow-route-edge-east-EW_1_random-edge-west-EW_1_max--7828856819807048400---2524120307097757919--3-0.0" type="actor-car_type_1-162591272234549392" depart="0.00" departLane="1" departPos="random" departSpeed="max" arrivalLane="1" arrivalPos="max">
        <route edges="edge-east-EW edge-west-EW"/>
    </vehicle>
    <vehicle id="car_type_1-flow-route-edge-south-SN_0_random-edge-east-WE_0_random--815873430852809341---2524120307097757919--4-0.0" type="actor-car_type_1-162591272234549392" depart="0.00" departLane="0" departPos="random" departSpeed="max" arrivalLane="0" arrivalPos="random">
        <route edges="edge-south-SN edge-east-WE"/>
    </vehicle>
    <vehicle id="car_type_1-flow-route-edge-west-WE_0_random-edge-east-WE_0_random--7532517476471260493---2524120307097757919--0-0.0" type="actor-car_type_1-162591272234549392" depart="0.00" departLane="0" departPos="random" departSpeed="max" arrivalLane="0" arrivalPos="random">
        <route edges="edge-west-WE edge-east-WE"/>
    </vehicle>
    <vehicle id="car_type_1-flow-route-edge-west-WE_1_random-edge-east-WE_1_random--1006411805826172327---2524120307097757919--1-0.0" type="actor-car_type_1-162591272234549392" depart="0.00" departLane="1" departPos="random" departSpeed="max" arrivalLane="1" arrivalPos="random">
        <route edges="edge-west-WE edge-east-WE"/>
    </vehicle>
    <vType id="actor-car_type_2-1938414246418902669" minGap="2.75" maxSpeed="55.50" speedFactor="normc(0.69,0.10,0.20,2.00)" vClass="passenger" impatience="0.26" lcCooperative="0.17004074554965298" lcSpeedGain="1.8293423176912875" lcImpatience="0.22635519143080995" jmIgnoreFoeProb="0.6447977954419991" accel="2.6" decel="4.5" sigma="0.3703281693575076"/>
    <vehicle id="car_type_2-flow-route-edge-east-EW_0_random-edge-west-EW_0_max-4424254747846103838---2524120307097757919--2-1.0" type="actor-car_type_2-1938414246418902669" depart="0.00" departLane="0" departPos="random" departSpeed="max" arrivalLane="0" arrivalPos="max">
        <route edges="edge-east-EW edge-west-EW"/>
    </vehicle>
    <vehicle id="car_type_2-flow-route-edge-east-EW_1_random-edge-west-EW_1_max--7828856819807048400---2524120307097757919--3-1.0" type="actor-car_type_2-1938414246418902669" depart="0.00" departLane="1" departPos="random" departSpeed="max" arrivalLane="1" arrivalPos="max">
        <route edges="edge-east-EW edge-west-EW"/>
    </vehicle>
    <vehicle id="car_type_2-flow-route-edge-south-SN_0_random-edge-east-WE_0_random--815873430852809341---2524120307097757919--4-1.0" type="actor-car_type_2-1938414246418902669" depart="0.00" departLane="0" departPos="random" departSpeed="max" arrivalLane="0" arrivalPos="random">
        <route edges="edge-south-SN edge-east-WE"/>
    </vehicle>
    <vehicle id="car_type_2-flow-route-edge-west-WE_0_random-edge-east-WE_0_random--7532517476471260493---2524120307097757919--0-1.0" type="actor-car_type_2-1938414246418902669" depart="0.00" departLane="0" departPos="random" departSpeed="max" arrivalLane="0" arrivalPos="random">
        <route edges="edge-west-WE edge-east-WE"/>
    </vehicle>
    <vehicle id="car_type_2-flow-route-edge-west-WE_1_random-edge-east-WE_1_random--1006411805826172327---2524120307097757919--1-1.0" type="actor-car_type_2-1938414246418902669" depart="0.00" departLane="1" departPos="random" departSpeed="max" arrivalLane="1" arrivalPos="random">
        <route edges="edge-west-WE edge-east-WE"/>
    </vehicle>
    <vType id="actor-car_type_3--7358476667596955004" minGap="3.20" maxSpeed="55.50" speedFactor="normc(0.93,0.10,0.20,2.00)" vClass="passenger" impatience="0.29" lcCooperative="0.2357197974041425" lcSpeedGain="1.4183873232142579" lcImpatience="0.26420894748878243" jmIgnoreFoeProb="0.024566963120488894" accel="2.6" decel="4.5" sigma="0.5112404021294545"/>
    <vehicle id="car_type_3-flow-route-edge-east-EW_0_random-edge-west-EW_0_max-4424254747846103838---2524120307097757919--2-2.0" type="actor-car_type_3--7358476667596955004" depart="0.00" departLane="0" departPos="random" departSpeed="max" arrivalLane="0" arrivalPos="max">
        <route edges="edge-east-EW edge-west-EW"/>
    </vehicle>
    <vehicle id="car_type_3-flow-route-edge-east-EW_1_random-edge-west-EW_1_max--7828856819807048400---2524120307097757919--3-2.0" type="actor-car_type_3--7358476667596955004" depart="0.00" departLane="1" departPos="random" departSpeed="max" arrivalLane="1" arrivalPos="max">
        <route edges="edge-east-EW edge-west-EW"/>
    </vehicle>
    <vehicle id="car_type_3-flow-route-edge-south-SN_0_random-edge-east-WE_0_random--815873430852809341---2524120307097757919--4-2.0" type="actor-car_type_3--7358476667596955004" depart="0.00" departLane="0" departPos="random" departSpeed="max" arrivalLane="0" arrivalPos="random">
        <route edges="edge-south-SN edge-east-WE"/>
    </vehicle>
    <vehicle id="car_type_3-flow-route-edge-west-WE_0_random-edge-east-WE_0_random--7532517476471260493---2524120307097757919--0-2.0" type="actor-car_type_3--7358476667596955004" depart="0.00" departLane="0" departPos="random" departSpeed="max" arrivalLane="0" arrivalPos="random">
        <route edges="edge-west-WE edge-east-WE"/>
    </vehicle>
    <vehicle id="car_type_3-flow-route-edge-west-WE_1_random-edge-east-WE_1_random--1006411805826172327---2524120307097757919--1-2.0" type="actor-car_type_3--7358476667596955004" depart="0.00" departLane="1" departPos="random" departSpeed="max" arrivalLane="1" arrivalPos="random">
        <route edges="edge-west-WE edge-east-WE"/>
    </vehicle>
    <vType id="actor-car_type_4--6674756320534192294" minGap="3.53" maxSpeed="55.50" speedFactor="normc(0.88,0.10,0.20,2.00)" vClass="passenger" impatience="0.43" lcCooperative="0.9115290865187197" lcSpeedGain="1.0012129585655196" lcImpatience="0.41030270450036166" jmIgnoreFoeProb="0.6994384670732344" accel="2.6" decel="4.5" sigma="0.41293774842714626"/>
    <vehicle id="car_type_4-flow-route-edge-east-EW_0_random-edge-west-EW_0_max-4424254747846103838---2524120307097757919--2-3.0" type="actor-car_type_4--6674756320534192294" depart="0.00" departLane="0" departPos="random" departSpeed="max" arrivalLane="0" arrivalPos="max">
        <route edges="edge-east-EW edge-west-EW"/>
    </vehicle>
    <vehicle id="car_type_4-flow-route-edge-east-EW_1_random-edge-west-EW_1_max--7828856819807048400---2524120307097757919--3-3.0" type="actor-car_type_4--6674756320534192294" depart="0.00" departLane="1" departPos="random" departSpeed="max" arrivalLane="1" arrivalPos="max">
        <route edges="edge-east-EW edge-west-EW"/>
    </vehicle>
    <vehicle id="car_type_4-flow-route-edge-south-SN_0_random-edge-east-WE_0_random--815873430852809341---2524120307097757919--4-3.0" type="actor-car_type_4--6674756320534192294" depart="0.00" departLane="0" departPos="random" departSpeed="max" arrivalLane="0" arrivalPos="random">
        <route edges="edge-south-SN edge-east-WE"/>
    </vehicle>
    <vehicle id="car_type_4-flow-route-edge-west-WE_0_random-edge-east-WE_0_random--7532517476471260493---2524120307097757919--0-3.0" type="actor-car_type_4--6674756320534192294" depart="0.00" departLane="0" departPos="random" departSpeed="max" arrivalLane="0" arrivalPos="random">
        <route edges="edge-west-WE edge-east-WE"/>
    </vehicle>
    <vehicle id="car_type_4-flow-route-edge-west-WE_1_random-edge-east-WE_1_random--1006411805826172327---2524120307097757919--1-3.0" type="actor-car_type_4--6674756320534192294" depart="0.00" departLane="1" departPos="random" departSpeed="max" arrivalLane="1" arrivalPos="random">
        <route edges="edge-west-WE edge-east-WE"/>
    </vehicle>
    <vehicle id="car_type_1-flow-route-edge-east-EW_0_random-edge-west-EW_0_max-4424254747846103838---2524120307097757919--2-0.1" type="actor-car_type_1-162591272234549392" depart="144.00" departLane="0" departPos="random" departSpeed="max" arrivalLane="0" arrivalPos="max">
        <route edges="edge-east-EW edge-west-EW"/>
    </vehicle>
    <vehicle id="car_type_1-flow-route-edge-east-EW_1_random-edge-west-EW_1_max--7828856819807048400---2524120307097757919--3-0.1" type="actor-car_type_1-162591272234549392" depart="144.00" departLane="1" departPos="random" departSpeed="max" arrivalLane="1" arrivalPos="max">
        <route edges="edge-east-EW edge-west-EW"/>
    </vehicle>
    <vehicle id="car_type_1-flow-route-edge-south-SN_0_random-edge-east-WE_0_random--815873430852809341---2524120307097757919--4-0.1" type="actor-car_type_1-162591272234549392" depart="144.00" departLane="0" departPos="random" departSpeed="max" arrivalLane="0" arrivalPos="random">
        <route edges="edge-south-SN edge-east-WE"/>
    </vehicle>
    <vehicle id="car_type_1-flow-route-edge-west-WE_0_random-edge-east-WE_0_random--7532517476471260493---2524120307097757919--0-0.1" type="actor-car_type_1-162591272234549392" depart="144.00" departLane="0" departPos="random" departSpeed="max" arrivalLane="0" arrivalPos="random">
        <route edges="edge-west-WE edge-east-WE"/>
    </vehicle>
    <vehicle id="car_type_1-flow-route-edge-west-WE_1_random-edge-east-WE_1_random--1006411805826172327---2524120307097757919--1-0.1" type="actor-car_type_1-162591272234549392" depart="144.00" departLane="1" departPos="random" departSpeed="max" arrivalLane="1" arrivalPos="random">
        <route edges="edge-west-WE edge-east-WE"/>
    </vehicle>
    <vehicle id="car_type_2-flow-route-edge-east-EW_0_random-edge-west-EW_0_max-4424254747846103838---2524120307097757919--2-1.1" type="actor-car_type_2-1938414246418902669" depart="144.00" departLane="0" departPos="random" departSpeed="max" arrivalLane="0" arrivalPos="max">
        <route edges="edge-east-EW edge-west-EW"/>
    </vehicle>
    <vehicle id="car_type_2-flow-route-edge-east-EW_1_random-edge-west-EW_1_max--7828856819807048400---2524120307097757919--3-1.1" type="actor-car_type_2-1938414246418902669" depart="144.00" departLane="1" departPos="random" departSpeed="max" arrivalLane="1" arrivalPos="max">
        <route edges="edge-east-EW edge-west-EW"/>
    </vehicle>
    <vehicle id="car_type_2-flow-route-edge-south-SN_0_random-edge-east-WE_0_random--815873430852809341---2524120307097757919--4-1.1" type="actor-car_type_2-1938414246418902669" depart="144.00" departLane="0" departPos="random" departSpeed="max" arrivalLane="0" arrivalPos="random">
        <route edges="edge-south-SN edge-east-WE"/>
    </vehicle>
    <vehicle id="car_type_2-flow-route-edge-west-WE_0_random-edge-east-WE_0_random--7532517476471260493---2524120307097757919--0-1.1" type="actor-car_type_2-1938414246418902669" depart="144.00" departLane="0" departPos="random" departSpeed="max" arrivalLane="0" arrivalPos="random">
        <route edges="edge-west-WE edge-east-WE"/>
    </vehicle>
    <vehicle id="car_type_2-flow-route-edge-west-WE_1_random-edge-east-WE_1_random--1006411805826172327---2524120307097757919--1-1.1" type="actor-car_type_2-1938414246418902669" depart="144.00" departLane="1" departPos="random" departSpeed="max" arrivalLane="1" arrivalPos="random">
        <route edges="edge-west-WE edge-east-WE"/>
    </vehicle>
    <vehicle id="car_type_3-flow-route-edge-east-EW_0_random-edge-west-EW_0_max-4424254747846103838---2524120307097757919--2-2.1" type="actor-car_type_3--7358476667596955004" depart="144.00" departLane="0" departPos="random" departSpeed="max" arrivalLane="0" arrivalPos="max">
        <route edges="edge-east-EW edge-west-EW"/>
    </vehicle>
    <vehicle id="car_type_3-flow-route-edge-east-EW_1_random-edge-west-EW_1_max--7828856819807048400---2524120307097757919--3-2.1" type="actor-car_type_3--7358476667596955004" depart="144.00" departLane="1" departPos="random" departSpeed="max" arrivalLane="1" arrivalPos="max">
        <route edges="edge-east-EW edge-west-EW"/>
    </vehicle>
    <vehicle id="car_type_3-flow-route-edge-south-SN_0_random-edge-east-WE_0_random--815873430852809341---2524120307097757919--4-2.1" type="actor-car_type_3--7358476667596955004" depart="144.00" departLane="0" departPos="random" departSpeed="max" arrivalLane="0" arrivalPos="random">
        <route edges="edge-south-SN edge-east-WE"/>
    </vehicle>
    <vehicle id="car_type_3-flow-route-edge-west-WE_0_random-edge-east-WE_0_random--7532517476471260493---2524120307097757919--0-2.1" type="actor-car_type_3--7358476667596955004" depart="144.00" departLane="0" departPos="random" departSpeed="max" arrivalLane="0" arrivalPos="random">
        <route edges="edge-west-WE edge-east-WE"/>
    </vehicle>
    <vehicle id="car_type_3-flow-route-edge-west-WE_1_random-edge-east-WE_1_random--1006411805826172327---2524120307097757919--1-2.1" type="actor-car_type_3--7358476667596955004" depart="144.00" departLane="1" departPos="random" departSpeed="max" arrivalLane="1" arrivalPos="random">
        <route edges="edge-west-WE edge-east-WE"/>
    </vehicle>
    <vehicle id="car_type_4-flow-route-edge-east-EW_0_random-edge-west-EW_0_max-4424254747846103838---2524120307097757919--2-3.1" type="actor-car_type_4--6674756320534192294" depart="144.00" departLane="0" departPos="random" departSpeed="max" arrivalLane="0" arrivalPos="max">
        <route edges="edge-east-EW edge-west-EW"/>
    </vehicle>
    <vehicle id="car_type_4-flow-route-edge-east-EW_1_random-edge-west-EW_1_max--7828856819807048400---2524120307097757919--3-3.1" type="actor-car_type_4--6674756320534192294" depart="144.00" departLane="1" departPos="random" departSpeed="max" arrivalLane="1" arrivalPos="max">
        <route edges="edge-east-EW edge-west-EW"/>
    </vehicle>
    <vehicle id="car_type_4-flow-route-edge-south-SN_0_random-edge-east-WE_0_random--815873430852809341---2524120307097757919--4-3.1" type="actor-car_type_4--6674756320534192294" depart="144.00" departLane="0" departPos="random" departSpeed="max" arrivalLane="0" arrivalPos="random">
        <route edges="edge-south-SN edge-east-WE"/>
    </vehicle>
    <vehicle id="car_type_4-flow-route-edge-west-WE_0_random-edge-east-WE_0_random--7532517476471260493---2524120307097757919--0-3.1" type="actor-car_type_4--6674756320534192294" depart="144.00" departLane="0" departPos="random" departSpeed="max" arrivalLane="0" arrivalPos="random">
        <route edges="edge-west-WE edge-east-WE"/>
    </vehicle>
    <vehicle id="car_type_4-flow-route-edge-west-WE_1_random-edge-east-WE_1_random--1006411805826172327---2524120307097757919--1-3.1" type="actor-car_type_4--6674756320534192294" depart="144.00" departLane="1" departPos="random" departSpeed="max" arrivalLane="1" arrivalPos="random">
        <route edges="edge-west-WE edge-east-WE"/>
    </vehicle>
    <vehicle id="car_type_1-flow-route-edge-east-EW_0_random-edge-west-EW_0_max-4424254747846103838---2524120307097757919--2-0.2" type="actor-car_type_1-162591272234549392" depart="288.00" departLane="0" departPos="random" departSpeed="max" arrivalLane="0" arrivalPos="max">
        <route edges="edge-east-EW edge-west-EW"/>
    </vehicle>
    <vehicle id="car_type_1-flow-route-edge-east-EW_1_random-edge-west-EW_1_max--7828856819807048400---2524120307097757919--3-0.2" type="actor-car_type_1-162591272234549392" depart="288.00" departLane="1" departPos="random" departSpeed="max" arrivalLane="1" arrivalPos="max">
        <route edges="edge-east-EW edge-west-EW"/>
    </vehicle>
    <vehicle id="car_type_1-flow-route-edge-south-SN_0_random-edge-east-WE_0_random--815873430852809341---2524120307097757919--4-0.2" type="actor-car_type_1-162591272234549392" depart="288.00" departLane="0" departPos="random" departSpeed="max" arrivalLane="0" arrivalPos="random">
        <route edges="edge-south-SN edge-east-WE"/>
    </vehicle>
    <vehicle id="car_type_1-flow-route-edge-west-WE_0_random-edge-east-WE_0_random--7532517476471260493---2524120307097757919--0-0.2" type="actor-car_type_1-162591272234549392" depart="288.00" departLane="0" departPos="random" departSpeed="max" arrivalLane="0" arrivalPos="random">
        <route edges="edge-west-WE edge-east-WE"/>
    </vehicle>
    <vehicle id="car_type_1-flow-route-edge-west-WE_1_random-edge-east-WE_1_random--1006411805826172327---2524120307097757919--1-0.2" type="actor-car_type_1-162591272234549392" depart="288.00" departLane="1" departPos="random" departSpeed="max" arrivalLane="1" arrivalPos="random">
        <route edges="edge-west-WE edge-east-WE"/>
    </vehicle>
    <vehicle id="car_type_2-flow-route-edge-east-EW_0_random-edge-west-EW_0_max-4424254747846103838---2524120307097757919--2-1.2" type="actor-car_type_2-1938414246418902669" depart="288.00" departLane="0" departPos="random" departSpeed="max" arrivalLane="0" arrivalPos="max">
        <route edges="edge-east-EW edge-west-EW"/>
    </vehicle>
    <vehicle id="car_type_2-flow-route-edge-east-EW_1_random-edge-west-EW_1_max--7828856819807048400---2524120307097757919--3-1.2" type="actor-car_type_2-1938414246418902669" depart="288.00" departLane="1" departPos="random" departSpeed="max" arrivalLane="1" arrivalPos="max">
        <route edges="edge-east-EW edge-west-EW"/>
    </vehicle>
    <vehicle id="car_type_2-flow-route-edge-south-SN_0_random-edge-east-WE_0_random--815873430852809341---2524120307097757919--4-1.2" type="actor-car_type_2-1938414246418902669" depart="288.00" departLane="0" departPos="random" departSpeed="max" arrivalLane="0" arrivalPos="random">
        <route edges="edge-south-SN edge-east-WE"/>
    </vehicle>
    <vehicle id="car_type_2-flow-route-edge-west-WE_0_random-edge-east-WE_0_random--7532517476471260493---2524120307097757919--0-1.2" type="actor-car_type_2-1938414246418902669" depart="288.00" departLane="0" departPos="random" departSpeed="max" arrivalLane="0" arrivalPos="random">
        <route edges="edge-west-WE edge-east-WE"/>
    </vehicle>
    <vehicle id="car_type_2-flow-route-edge-west-WE_1_random-edge-east-WE_1_random--1006411805826172327---2524120307097757919--1-1.2" type="actor-car_type_2-1938414246418902669" depart="288.00" departLane="1" departPos="random" departSpeed="max" arrivalLane="1" arrivalPos="random">
        <route edges="edge-west-WE edge-east-WE"/>
    </vehicle>
    <vehicle id="car_type_3-flow-route-edge-east-EW_0_random-edge-west-EW_0_max-4424254747846103838---2524120307097757919--2-2.2" type="actor-car_type_3--7358476667596955004" depart="288.00" departLane="0" departPos="random" departSpeed="max" arrivalLane="0" arrivalPos="max">
        <route edges="edge-east-EW edge-west-EW"/>
    </vehicle>
    <vehicle id="car_type_3-flow-route-edge-east-EW_1_random-edge-west-EW_1_max--7828856819807048400---2524120307097757919--3-2.2" type="actor-car_type_3--7358476667596955004" depart="288.00" departLane="1" departPos="random" departSpeed="max" arrivalLane="1" arrivalPos="max">
        <route edges="edge-east-EW edge-west-EW"/>
    </vehicle>
    <vehicle id="car_type_3-flow-route-edge-south-SN_0_random-edge-east-WE_0_random--815873430852809341---2524120307097757919--4-2.2" type="actor-car_type_3--7358476667596955004" depart="288.00" departLane="0" departPos="random" departSpeed="max" arrivalLane="0" arrivalPos="random">
        <route edges="edge-south-SN edge-east-WE"/>
    </vehicle>
    <vehicle id="car_type_3-flow-route-edge-west-WE_0_random-edge-east-WE_0_random--7532517476471260493---2524120307097757919--0-2.2" type="actor-car_type_3--7358476667596955004" depart="288.00" departLane="0" departPos="random" departSpeed="max" arrivalLane="0" arrivalPos="random">
        <route edges="edge-west-WE edge-east-WE"/>
    </vehicle>
    <vehicle id="car_type_3-flow-route-edge-west-WE_1_random-edge-east-WE_1_random--1006411805826172327---2524120307097757919--1-2.2" type="actor-car_type_3--7358476667596955004" depart="288.00" departLane="1" departPos="random" departSpeed="max" arrivalLane="1" arrivalPos="random">
        <route edges="edge-west-WE edge-east-WE"/>
    </vehicle>
    <vehicle id="car_type_4-flow-route-edge-east-EW_0_random-edge-west-EW_0_max-4424254747846103838---2524120307097757919--2-3.2" type="actor-car_type_4--6674756320534192294" depart="288.00" departLane="0" departPos="random" departSpeed="max" arrivalLane="0" arrivalPos="max">
        <route edges="edge-east-EW edge-west-EW"/>
    </vehicle>
    <vehicle id="car_type_4-flow-route-edge-east-EW_1_random-edge-west-EW_1_max--7828856819807048400---2524120307097757919--3-3.2" type="actor-car_type_4--6674756320534192294" depart="288.00" departLane="1" departPos="random" departSpeed="max" arrivalLane="1" arrivalPos="max">
        <route edges="edge-east-EW edge-west-EW"/>
    </vehicle>
    <vehicle id="car_type_4-flow-route-edge-south-SN_0_random-edge-east-WE_0_random--815873430852809341---2524120307097757919--4-3.2" type="actor-car_type_4--6674756320534192294" depart="288.00" departLane="0" departPos="random" departSpeed="max" arrivalLane="0" arrivalPos="random">
        <route edges="edge-south-SN edge-east-WE"/>
    </vehicle>
    <vehicle id="car_type_4-flow-route-edge-west-WE_0_random-edge-east-WE_0_random--7532517476471260493---2524120307097757919--0-3.2" type="actor-car_type_4--6674756320534192294" depart="288.00" departLane="0" departPos="random" departSpeed="max" arrivalLane="0" arrivalPos="random">
        <route edges="edge-west-WE edge-east-WE"/>
    </vehicle>
    <vehicle id="car_type_4-flow-route-edge-west-WE_1_random-edge-east-WE_1_random--1006411805826172327---2524120307097757919--1-3.2" type="actor-car_type_4--6674756320534192294" depart="288.00" departLane="1" departPos="random" departSpeed="max" arrivalLane="1" arrivalPos="random">
        <route edges="edge-west-WE edge-east-WE"/>
    </vehicle>
    <vehicle id="car_type_1-flow-route-edge-east-EW_0_random-edge-west-EW_0_max-4424254747846103838---2524120307097757919--2-0.3" type="actor-car_type_1-162591272234549392" depart="432.00" departLane="0" departPos="random" departSpeed="max" arrivalLane="0" arrivalPos="max">
        <route edges="edge-east-EW edge-west-EW"/>
    </vehicle>
    <vehicle id="car_type_1-flow-route-edge-east-EW_1_random-edge-west-EW_1_max--7828856819807048400---2524120307097757919--3-0.3" type="actor-car_type_1-162591272234549392" depart="432.00" departLane="1" departPos="random" departSpeed="max" arrivalLane="1" arrivalPos="max">
        <route edges="edge-east-EW edge-west-EW"/>
    </vehicle>
    <vehicle id="car_type_1-flow-route-edge-south-SN_0_random-edge-east-WE_0_random--815873430852809341---2524120307097757919--4-0.3" type="actor-car_type_1-162591272234549392" depart="432.00" departLane="0" departPos="random" departSpeed="max" arrivalLane="0" arrivalPos="random">
        <route edges="edge-south-SN edge-east-WE"/>
    </vehicle>
    <vehicle id="car_type_1-flow-route-edge-west-WE_0_random-edge-east-WE_0_random--7532517476471260493---2524120307097757919--0-0.3" type="actor-car_type_1-162591272234549392" depart="432.00" departLane="0" departPos="random" departSpeed="max" arrivalLane="0" arrivalPos="random">
        <route edges="edge-west-WE edge-east-WE"/>
    </vehicle>
    <vehicle id="car_type_1-flow-route-edge-west-WE_1_random-edge-east-WE_1_random--1006411805826172327---2524120307097757919--1-0.3" type="actor-car_type_1-162591272234549392" depart="432.00" departLane="1" departPos="random" departSpeed="max" arrivalLane="1" arrivalPos="random">
        <route edges="edge-west-WE edge-east-WE"/>
    </vehicle>
    <vehicle id="car_type_2-flow-route-edge-east-EW_0_random-edge-west-EW_0_max-4424254747846103838---2524120307097757919--2-1.3" type="actor-car_type_2-1938414246418902669" depart="432.00" departLane="0" departPos="random" departSpeed="max" arrivalLane="0" arrivalPos="max">
        <route edges="edge-east-EW edge-west-EW"/>
    </vehicle>
    <vehicle id="car_type_2-flow-route-edge-east-EW_1_random-edge-west-EW_1_max--7828856819807048400---2524120307097757919--3-1.3" type="actor-car_type_2-1938414246418902669" depart="432.00" departLane="1" departPos="random" departSpeed="max" arrivalLane="1" arrivalPos="max">
        <route edges="edge-east-EW edge-west-EW"/>
    </vehicle>
    <vehicle id="car_type_2-flow-route-edge-south-SN_0_random-edge-east-WE_0_random--815873430852809341---2524120307097757919--4-1.3" type="actor-car_type_2-1938414246418902669" depart="432.00" departLane="0" departPos="random" departSpeed="max" arrivalLane="0" arrivalPos="random">
        <route edges="edge-south-SN edge-east-WE"/>
    </vehicle>
    <vehicle id="car_type_2-flow-route-edge-west-WE_0_random-edge-east-WE_0_random--7532517476471260493---2524120307097757919--0-1.3" type="actor-car_type_2-1938414246418902669" depart="432.00" departLane="0" departPos="random" departSpeed="max" arrivalLane="0" arrivalPos="random">
        <route edges="edge-west-WE edge-east-WE"/>
    </vehicle>
    <vehicle id="car_type_2-flow-route-edge-west-WE_1_random-edge-east-WE_1_random--1006411805826172327---2524120307097757919--1-1.3" type="actor-car_type_2-1938414246418902669" depart="432.00" departLane="1" departPos="random" departSpeed="max" arrivalLane="1" arrivalPos="random">
        <route edges="edge-west-WE edge-east-WE"/>
    </vehicle>
    <vehicle id="car_type_3-flow-route-edge-east-EW_0_random-edge-west-EW_0_max-4424254747846103838---2524120307097757919--2-2.3" type="actor-car_type_3--7358476667596955004" depart="432.00" departLane="0" departPos="random" departSpeed="max" arrivalLane="0" arrivalPos="max">
        <route edges="edge-east-EW edge-west-EW"/>
    </vehicle>
    <vehicle id="car_type_3-flow-route-edge-east-EW_1_random-edge-west-EW_1_max--7828856819807048400---2524120307097757919--3-2.3" type="actor-car_type_3--7358476667596955004" depart="432.00" departLane="1" departPos="random" departSpeed="max" arrivalLane="1" arrivalPos="max">
        <route edges="edge-east-EW edge-west-EW"/>
    </vehicle>
    <vehicle id="car_type_3-flow-route-edge-south-SN_0_random-edge-east-WE_0_random--815873430852809341---2524120307097757919--4-2.3" type="actor-car_type_3--7358476667596955004" depart="432.00" departLane="0" departPos="random" departSpeed="max" arrivalLane="0" arrivalPos="random">
        <route edges="edge-south-SN edge-east-WE"/>
    </vehicle>
    <vehicle id="car_type_3-flow-route-edge-west-WE_0_random-edge-east-WE_0_random--7532517476471260493---2524120307097757919--0-2.3" type="actor-car_type_3--7358476667596955004" depart="432.00" departLane="0" departPos="random" departSpeed="max" arrivalLane="0" arrivalPos="random">
        <route edges="edge-west-WE edge-east-WE"/>
    </vehicle>
    <vehicle id="car_type_3-flow-route-edge-west-WE_1_random-edge-east-WE_1_random--1006411805826172327---2524120307097757919--1-2.3" type="actor-car_type_3--7358476667596955004" depart="432.00" departLane="1" departPos="random" departSpeed="max" arrivalLane="1" arrivalPos="random">
        <route edges="edge-west-WE edge-east-WE"/>
    </vehicle>
    <vehicle id="car_type_4-flow-route-edge-east-EW_0_random-edge-west-EW_0_max-4424254747846103838---2524120307097757919--2-3.3" type="actor-car_type_4--6674756320534192294" depart="432.00" departLane="0" departPos="random" departSpeed="max" arrivalLane="0" arrivalPos="max">
        <route edges="edge-east-EW edge-west-EW"/>
    </vehicle>
    <vehicle id="car_type_4-flow-route-edge-east-EW_1_random-edge-west-EW_1_max--7828856819807048400---2524120307097757919--3-3.3" type="actor-car_type_4--6674756320534192294" depart="432.00" departLane="1" departPos="random" departSpeed="max" arrivalLane="1" arrivalPos="max">
        <route edges="edge-east-EW edge-west-EW"/>
    </vehicle>
    <vehicle id="car_type_4-flow-route-edge-south-SN_0_random-edge-east-WE_0_random--815873430852809341---2524120307097757919--4-3.3" type="actor-car_type_4--6674756320534192294" depart="432.00" departLane="0" departPos="random" departSpeed="max" arrivalLane="0" arrivalPos="random">
        <route edges="edge-south-SN edge-east-WE"/>
    </vehicle>
    <vehicle id="car_type_4-flow-route-edge-west-WE_0_random-edge-east-WE_0_random--7532517476471260493---2524120307097757919--0-3.3" type="actor-car_type_4--6674756320534192294" depart="432.00" departLane="0" departPos="random" departSpeed="max" arrivalLane="0" arrivalPos="random">
        <route edges="edge-west-WE edge-east-WE"/>
    </vehicle>